datagen/Fecamp Test Case - SSTool/matpower7.1/data/case_ACTIVSg500.m
function mpc = case_ACTIVSg500
%CASE_ACTIVSG500  Synthetic South Carolina 500-bus power system model.
%
%   This is an entirely synthetic 500 bus case, geographically situated
%   in the northwestern part of the US state of South Carolina. The case is
%   designed with a 345 and 138 kV transmission network to serve
%   a load that roughly mimics the actual population of its geographic
%   footprint. The synthetic transmission system was designed by
%   algorithms described in [1] to be statistically similar to actual
%   transmission system models but without modeling any actual lines.
%
%   When publishing results based on this data, please cite:
%
%   [1] A.B. Birchfield, T. Xu, K.M. Gegner, K.S. Shetye, T.J. Overbye,
%       "Grid Structural Characteristics as Validation Criteria for
%       Synthetic Networks," IEEE Transactions on Power Systems,
%       vol. 32, no. 4, pp. 3258-3265, July 2017.
%       doi: 10.1109/TPWRS.2016.2616385
%
%   This is a synthetic power system model that does not represent the
%   actual grid. It was developed as part of the US ARPA-E GRID DATA
%   research project and contains no CEII.
%
%   One-line diagrams and other data formats available at:
%       https://electricgrids.engr.tamu.edu
%
%   May 16, 2017

%   Created from ACTIV_SG_500.pwb, saved by
%   PowerWorld Simulator, version 20 Beta, build date May 19, 2017,
%   then by MATPOWER 6.

%   MATPOWER
%   Copyright (c) 2017 by A.B. Birchfield, T. Xu, K.M. Gegner, K.S. Shetye,
%   and T.J. Overbye
%   Licensed under the Creative Commons Attribution 4.0 International license,
%   https://creativecommons.org/licenses/by/4.0/

%% MATPOWER Case Format : Version 2
mpc.version = '2';

%%-----  Power Flow Data  -----%%
%% system MVA base
mpc.baseMVA = 100;

%% bus data
%	bus_i	type	Pd	Qd	Gs	Bs	area	Vm	Va	baseKV	zone	Vmax	Vmin	lam_P	lam_Q	mu_Vmax	mu_Vmin
mpc.bus = [
	1	1	0	0	0	0	1	1.0121594	-10.768348	138	2	1.1	0.9	24.4400	-0.0100	0.0000	0.0000;
	2	1	42.8	11.41	0	0	1	1.0115797	-10.840156	138	2	1.1	0.9	24.4400	-0.0100	0.0000	0.0000;
	3	1	0	0	0	0	1	1.0062303	-12.071857	138	2	1.1	0.9	24.4400	-0.0000	0.0000	0.0000;
	4	1	132.69	35.38	0	0	1	1.0040662	-12.322717	138	2	1.1	0.9	24.4400	-0.0000	0.0000	0.0000;
	5	1	0	0	0	0	1	1.0146988	-1.264301	138	1	1.1	0.9	12.6800	0.7600	0.0000	0.0000;
	6	1	3.21	0.86	0	0	1	1.0146511	-1.270407	138	1	1.1	0.9	12.6800	0.7600	0.0000	0.0000;
	7	1	0	0	0	0	1	1.0338633	-6.93107	345	2	1.1	0.9	24.4400	-0.0000	0.0000	0.0000;
	8	1	0	0	0	0	1	1.0269631	-8.712158	138	2	1.1	0.9	24.4400	-0.0000	0.0000	0.0000;
	9	2	0	0	0	0	1	1.04	-4.132565	13.8	2	1.1	0.9	24.4400	0.0000	0.0000	0.0000;
	10	1	0	0	0	0	1	1.0167054	-13.818521	138	2	1.1	0.9	24.4200	-0.0300	0.0000	0.0000;
	11	1	2.47	0.66	0	0	1	1.0166687	-13.822668	138	2	1.1	0.9	24.4200	-0.0300	0.0000	0.0000;
	12	1	0	0	0	0	1	0.9918009	-14.544799	138	1	1.1	0.9	24.2500	-0.0100	0.0000	0.0000;
	13	1	37.16	9.91	0	0	1	0.9912534	-14.609077	138	1	1.1	0.9	24.2500	-0.0100	0.0000	0.0000;
	14	1	0	0	0	0	1	1.0300871	-3.407512	345	1	1.1	0.9	24.1300	0.0000	0.0000	0.0000;
	15	1	0	0	0	0	1	1.0213804	-6.028249	138	1	1.1	0.9	24.1300	0.0000	0.0000	0.0000;
	16	2	0	0	0	0	1	1.04	-0.563895	13.8	1	1.1	0.9	24.1300	0.0000	0.0000	0.0000;
	17	3	0	0	0	0	1	1.04	0	13.8	1	1.1	0.9	24.1300	0.0000	0.0000	0.0000;
	18	2	0	0	0	0	1	1.04	0.891476	13.8	1	1.1	0.9	24.1300	0.0000	0.0000	0.0000;
	19	1	0	0	0	0	1	1.0183477	-14.29614	138	2	1.1	0.9	24.3900	-0.0100	0.0000	0.0000;
	20	1	4.54	1.21	0	0	1	1.0182774	-14.305529	138	2	1.1	0.9	24.3900	-0.0100	0.0000	0.0000;
	21	1	0	0	0	0	1	1.00952	-12.34143	138	2	1.1	0.9	24.4300	-0.0100	0.0000	0.0000;
	22	1	148.7	39.65	0	0	1	1.0073941	-12.594211	138	2	1.1	0.9	24.4300	-0.0100	0.0000	0.0000;
	23	1	0	0	0	0	1	1.027297	-7.930431	345	1	1.1	0.9	23.9300	0.0100	0.0000	0.0000;
	24	1	0	0	0	0	1	1.0123427	-10.816709	138	1	1.1	0.9	23.9500	0.0100	0.0000	0.0000;
	25	1	2.28	0.61	0	0	1	1.0123071	-10.821133	138	1	1.1	0.9	23.9500	0.0100	0.0000	0.0000;
	26	1	21.66	5.78	0	0	1	1.0120091	-10.860073	138	1	1.1	0.9	23.9500	0.0100	0.0000	0.0000;
	27	1	0	0	0	50	1	1.0131877	-16.550327	138	1	1.1	0.9	24.7700	-0.1900	0.0000	0.0000;
	28	1	62.93	16.78	0	0	1	1.0121009	-16.683236	138	1	1.1	0.9	24.7700	-0.1900	0.0000	0.0000;
	29	1	0	0	0	0	1	1.0094314	-14.585453	138	2	1.1	0.9	24.4400	-0.0100	0.0000	0.0000;
	30	1	99.97	26.66	0	0	1	1.0079428	-14.761896	138	2	1.1	0.9	24.4400	-0.0100	0.0000	0.0000;
	31	1	0	0	0	100	1	1.0324536	-17.056434	138	2	1.1	0.9	24.3600	-0.0000	0.0000	0.0000;
	32	1	9.76	2.6	0	0	1	1.0323079	-17.07356	138	2	1.1	0.9	24.3600	-0.0000	0.0000	0.0000;
	33	1	0	0	0	0	1	1.0062025	-15.223413	138	2	1.1	0.9	24.4100	-0.0200	0.0000	0.0000;
	34	1	25	6.67	0	0	1	1.0058294	-15.267528	138	2	1.1	0.9	24.4100	-0.0200	0.0000	0.0000;
	35	1	0	0	0	0	1	1.0176565	-15.888312	138	2	1.1	0.9	24.3500	-0.0000	0.0000	0.0000;
	36	1	43.35	11.56	0	0	1	1.0170629	-15.957294	138	2	1.1	0.9	24.3500	-0.0000	0.0000	0.0000;
	37	1	0	0	0	0	1	1.019326	-0.912831	138	1	1.1	0.9	19.1900	0.4900	0.0000	0.0000;
	38	1	0.13	0.03	0	0	1	1.019324	-0.913092	138	1	1.1	0.9	19.1900	0.4900	0.0000	0.0000;
	39	1	0	0	0	0	1	1.029536	-7.806151	345	1	1.1	0.9	23.8500	0.0100	0.0000	0.0000;
	40	1	0	0	0	0	1	1.0230801	-9.013592	138	1	1.1	0.9	23.8600	0.0200	0.0000	0.0000;
	41	1	57.99	15.46	0	0	1	1.0221263	-9.13288	138	1	1.1	0.9	23.8600	0.0200	0.0000	0.0000;
	42	1	0	0	0	0	1	1.0241182	-13.629013	138	2	1.1	0.9	24.3300	-0.0000	0.0000	0.0000;
	43	1	4.46	1.19	0	0	1	1.0240584	-13.636262	138	2	1.1	0.9	24.3300	-0.0000	0.0000	0.0000;
	44	1	0	0	0	0	1	1.0183376	-9.780178	138	2	1.1	0.9	24.4400	-0.0100	0.0000	0.0000;
	45	1	2.03	0.54	0	0	1	1.0183043	-9.784337	138	2	1.1	0.9	24.4400	-0.0100	0.0000	0.0000;
	46	1	0	0	0	0	1	1.0041544	-13.176609	138	1	1.1	0.9	23.9100	0.0100	0.0000	0.0000;
	47	1	43.41	11.58	0	0	1	1.0034945	-13.257904	138	1	1.1	0.9	23.9100	0.0100	0.0000	0.0000;
	48	1	0	0	0	0	1	1.0009431	-17.76377	138	1	1.1	0.9	24.2300	-0.0000	0.0000	0.0000;
	49	2	0	0	0	0	1	1.002792	-17.561683	13.8	1	1.1	0.9	24.2300	-0.0000	0.0000	0.0000;
	50	2	0	0	0	0	1	1.0030954	-17.52604	13.8	1	1.1	0.9	24.2300	-0.0000	0.0000	0.0000;
	51	1	0.35	0.09	0	0	1	1.0009373	-17.764478	138	1	1.1	0.9	24.2300	-0.0000	0.0000	0.0000;
	52	1	23.39	6.24	0	0	1	1.0005895	-17.806277	138	1	1.1	0.9	24.2300	-0.0000	0.0000	0.0000;
	53	1	0	0	0	0	1	1.0165292	-13.251455	138	2	1.1	0.9	24.4400	-0.0100	0.0000	0.0000;
	54	1	34.81	9.28	0	0	1	1.0160159	-13.307067	138	2	1.1	0.9	24.4400	-0.0100	0.0000	0.0000;
	55	1	0	0	0	0	1	1.0191294	-13.193049	138	1	1.1	0.9	24.3000	-0.0100	0.0000	0.0000;
	56	1	2.25	0.6	0	0	1	1.0190957	-13.19695	138	1	1.1	0.9	24.3000	-0.0100	0.0000	0.0000;
	57	1	0	0	0	0	1	1.0102301	-9.631096	345	1	1.1	0.9	24.2200	-0.0000	0.0000	0.0000;
	58	1	0	0	0	0	1	1.0019704	-12.45089	138	1	1.1	0.9	24.2300	-0.0100	0.0000	0.0000;
	59	1	140.94	37.58	0	0	1	0.9996353	-12.747819	138	1	1.1	0.9	24.2300	-0.0100	0.0000	0.0000;
	60	1	0	0	0	0	1	1.0195458	-9.574278	138	1	1.1	0.9	23.8700	0.0200	0.0000	0.0000;
	61	1	0.2	0.05	0	0	1	1.0195429	-9.574657	138	1	1.1	0.9	23.8700	0.0200	0.0000	0.0000;
	62	1	0	0	0	0	1	1.0098039	-11.911949	138	1	1.1	0.9	24.4400	-0.0000	0.0000	0.0000;
	63	2	0	0	0	0	1	1.0098039	-11.911949	13.8	1	1.1	0.9	24.4400	-0.0000	0.0000	0.0000;
	64	1	34.78	9.27	0	0	1	1.0092747	-11.972508	138	1	1.1	0.9	24.4400	-0.0000	0.0000	0.0000;
	65	1	0	0	0	0	1	1.0253984	-10.657074	345	1	1.1	0.9	24.3100	-0.0100	0.0000	0.0000;
	66	1	0	0	0	0	1	1.0213047	-12.355135	138	1	1.1	0.9	24.3000	-0.0100	0.0000	0.0000;
	67	1	4.57	1.22	0	0	1	1.021235	-12.363122	138	1	1.1	0.9	24.3000	-0.0100	0.0000	0.0000;
	68	1	0	0	0	0	1	1.0095454	-13.55949	138	1	1.1	0.9	25.0400	-0.2500	0.0000	0.0000;
	69	1	16.96	4.52	0	0	1	1.0092536	-13.595925	138	1	1.1	0.9	25.0400	-0.2500	0.0000	0.0000;
	70	1	0	0	0	0	1	0.9952003	-14.853739	138	1	1.1	0.9	24.3300	-0.0300	0.0000	0.0000;
	71	2	0	0	0	0	1	0.9959298	-14.751248	13.8	1	1.1	0.9	24.3300	-0.0300	0.0000	0.0000;
	72	2	0	0	0	0	1	0.9963709	-14.687687	13.8	1	1.1	0.9	24.3300	-0.0300	0.0000	0.0000;
	73	2	0	0	0	0	1	0.996844	-14.636919	13.8	1	1.1	0.9	24.3300	-0.0300	0.0000	0.0000;
	74	1	0	0	0	0	1	1.0250334	-16.893698	138	2	1.1	0.9	24.3600	-0.0100	0.0000	0.0000;
	75	1	5.3	1.41	0	0	1	1.0249571	-16.9029	138	2	1.1	0.9	24.3600	-0.0100	0.0000	0.0000;
	76	1	0	0	0	0	1	1.017795	-0.028885	138	1	1.1	0.9	17.7200	0.5800	0.0000	0.0000;
	77	1	6.95	1.85	0	0	1	1.0176872	-0.04091	138	1	1.1	0.9	17.7200	0.5800	0.0000	0.0000;
	78	1	0	0	0	0	1	1.0126457	-8.449181	138	1	1.1	0.9	24.1500	0.0000	0.0000	0.0000;
	79	1	0.38	0.1	0	0	1	1.0126401	-8.449844	138	1	1.1	0.9	24.1500	0.0000	0.0000	0.0000;
	80	1	0	0	0	0	1	1.0318766	-10.20359	345	2	1.1	0.9	24.3200	-0.0000	0.0000	0.0000;
	81	1	0	0	0	0	1	1.0261976	-12.787872	138	2	1.1	0.9	24.3300	-0.0000	0.0000	0.0000;
	82	2	0	0	0	0	1	1.04	-4.187069	13.8	2	1.1	0.9	24.3200	0.0000	0.0000	0.0000;
	83	1	0	0	0	0	1	1.0042842	-15.618602	138	2	1.1	0.9	24.4200	-0.0200	0.0000	0.0000;
	84	1	61.41	16.38	0	0	1	1.0032952	-15.7403	138	2	1.1	0.9	24.4200	-0.0200	0.0000	0.0000;
	85	1	0	0	0	0	1	1.0261471	-15.871977	138	2	1.1	0.9	24.3700	-0.0100	0.0000	0.0000;
	86	1	17.59	4.69	0	0	1	1.0258566	-15.907664	138	2	1.1	0.9	24.3700	-0.0100	0.0000	0.0000;
	87	1	0	0	0	0	1	1.0010163	0.765842	138	1	1.1	0.9	3.9200	-0.6400	0.0000	0.0000;
	88	1	5.25	1.4	0	0	1	1.0009336	0.755621	138	1	1.1	0.9	3.9200	-0.6400	0.0000	0.0000;
	89	1	0	0	0	0	1	1.0178037	-11.12825	138	2	1.1	0.9	24.4400	-0.0100	0.0000	0.0000;
	90	1	5.9	1.57	0	0	1	1.0177118	-11.14038	138	2	1.1	0.9	24.4400	-0.0100	0.0000	0.0000;
	91	1	0	0	0	0	1	1.0117544	-7.578928	138	1	1.1	0.9	24.1400	0.0000	0.0000	0.0000;
	92	1	65.03	17.34	0	0	1	1.0107636	-7.705162	138	1	1.1	0.9	24.1400	0.0000	0.0000	0.0000;
	93	1	0	0	0	0	1	1.0153922	-6.433699	138	2	1.1	0.9	25.5900	-0.3600	0.0000	0.0000;
	94	1	5.21	1.39	0	0	1	1.0153197	-6.442794	138	2	1.1	0.9	25.5900	-0.3600	0.0000	0.0000;
	95	1	0	0	0	0	1	1.0121742	-7.546726	138	1	1.1	0.9	24.1400	0.0000	0.0000	0.0000;
	96	1	34	9.07	0	0	1	1.011693	-7.605762	138	1	1.1	0.9	24.1400	0.0000	0.0000	0.0000;
	97	1	0	0	0	0	1	1.0046514	-18.177695	138	1	1.1	0.9	24.2100	0.0000	0.0000	0.0000;
	98	1	37.09	9.89	0	0	1	1.0040476	-18.258479	138	1	1.1	0.9	24.2100	0.0000	0.0000	0.0000;
	99	1	0	0	0	0	1	1.0221931	-9.163343	138	1	1.1	0.9	24.0400	-0.0000	0.0000	0.0000;
	100	1	13.52	3.61	0	0	1	1.02198	-9.188916	138	1	1.1	0.9	24.0400	-0.0000	0.0000	0.0000;
	101	1	0.89	0.24	0	0	1	1.0221794	-9.164861	138	1	1.1	0.9	24.0400	-0.0000	0.0000	0.0000;
	102	1	0	0	0	0	1	1.0029364	-16.615939	138	1	1.1	0.9	24.2700	-0.0100	0.0000	0.0000;
	103	1	38.8	10.35	0	0	1	1.0022978	-16.697995	138	1	1.1	0.9	24.2700	-0.0100	0.0000	0.0000;
	104	1	0	0	0	0	1	1.0184026	-17.457678	138	2	1.1	0.9	24.3500	-0.0000	0.0000	0.0000;
	105	1	80.33	21.42	0	0	1	1.0170774	-17.616391	138	2	1.1	0.9	24.3500	-0.0000	0.0000	0.0000;
	106	1	0	0	0	0	1	1.0202726	-14.781528	138	2	1.1	0.9	24.3600	-0.0100	0.0000	0.0000;
	107	1	16.01	4.27	0	0	1	1.0200482	-14.80843	138	2	1.1	0.9	24.3600	-0.0100	0.0000	0.0000;
	108	1	0	0	0	0	1	1.0151317	-10.097752	138	1	1.1	0.9	23.9400	0.0100	0.0000	0.0000;
	109	1	47.58	12.69	0	0	1	1.0144458	-10.172782	138	1	1.1	0.9	23.9400	0.0100	0.0000	0.0000;
	110	1	0	0	0	50	1	1.0272383	-4.906973	138	1	1.1	0.9	15.6800	0.7800	0.0000	0.0000;
	111	1	62.29	16.61	0	0	1	1.0263161	-5.027748	138	1	1.1	0.9	15.6800	0.7800	0.0000	0.0000;
	112	1	0	0	0	0	1	1.0140803	-13.767323	138	2	1.1	0.9	24.4100	-0.0100	0.0000	0.0000;
	113	1	45.99	12.26	0	0	1	1.0134095	-13.842899	138	2	1.1	0.9	24.4100	-0.0100	0.0000	0.0000;
	114	1	0	0	0	0	1	1.0191486	-16.294584	138	2	1.1	0.9	24.3500	-0.0000	0.0000	0.0000;
	115	1	5.06	1.35	0	0	1	1.019079	-16.30359	138	2	1.1	0.9	24.3500	-0.0000	0.0000	0.0000;
	116	1	3.1	0.83	0	0	1	1.0191056	-16.300185	138	2	1.1	0.9	24.3500	-0.0000	0.0000	0.0000;
	117	1	0	0	0	0	1	1.0045114	-13.926792	138	1	1.1	0.9	24.3900	-0.0400	0.0000	0.0000;
	118	1	8.83	2.36	0	0	1	1.0043653	-13.94526	138	1	1.1	0.9	24.3900	-0.0400	0.0000	0.0000;
	119	1	0	0	0	0	1	0.9870946	-15.396824	138	1	1.1	0.9	24.1900	-0.0100	0.0000	0.0000;
	120	1	31.65	8.44	0	0	1	0.9866541	-15.451021	138	1	1.1	0.9	24.1900	-0.0100	0.0000	0.0000;
	121	1	0	0	0	0	1	1.0129046	-13.971263	138	2	1.1	0.9	24.4400	-0.0100	0.0000	0.0000;
	122	1	53.36	14.23	0	0	1	1.0120693	-14.081572	138	2	1.1	0.9	24.4400	-0.0100	0.0000	0.0000;
	123	1	0	0	0	0	1	1.0300843	-3.755483	345	1	1.1	0.9	24.1500	-0.0000	0.0000	0.0000;
	124	1	0	0	0	0	1	1.0276461	-4.458626	138	1	1.1	0.9	24.1500	-0.0000	0.0000	0.0000;
	125	2	0	0	0	0	1	1.0300843	-3.755483	13.8	1	1.1	0.9	24.1500	-0.0000	0.0000	0.0000;
	126	2	0	0	0	0	1	1.0300843	-3.755483	13.8	1	1.1	0.9	24.1500	-0.0000	0.0000	0.0000;
	127	2	0	0	0	0	1	1.04	0.394755	13.8	1	1.1	0.9	24.1500	0.0000	0.0000	0.0000;
	128	2	0	0	0	0	1	1.0395249	-2.386765	13.8	1	1.1	0.9	24.1500	-0.0000	0.0000	0.0000;
	129	1	0	0	0	0	1	0.9842018	-15.914608	138	1	1.1	0.9	24.2300	-0.0100	0.0000	0.0000;
	130	1	103.24	27.53	0	0	1	0.9825607	-16.100251	138	1	1.1	0.9	24.2300	-0.0100	0.0000	0.0000;
	131	1	0	0	0	0	1	1.0202588	-9.44535	138	1	1.1	0.9	23.8600	0.0200	0.0000	0.0000;
	132	1	25.2	6.72	0	0	1	1.0198539	-9.49303	138	1	1.1	0.9	23.8600	0.0200	0.0000	0.0000;
	133	1	0	0	0	0	1	1.0129048	-7.505509	138	1	1.1	0.9	24.1400	0.0000	0.0000	0.0000;
	134	1	42.65	11.37	0	0	1	1.0123408	-7.575691	138	1	1.1	0.9	24.1400	0.0000	0.0000	0.0000;
	135	1	0	0	0	0	1	1.0152678	-11.328869	138	2	1.1	0.9	24.4400	-0.0100	0.0000	0.0000;
	136	1	26.76	7.14	0	0	1	1.0148653	-11.381154	138	2	1.1	0.9	24.4400	-0.0100	0.0000	0.0000;
	137	1	0	0	0	0	1	1.0068193	-14.045005	138	1	1.1	0.9	24.4300	-0.0400	0.0000	0.0000;
	138	1	78.71	20.99	0	0	1	1.0055899	-14.207124	138	1	1.1	0.9	24.4300	-0.0400	0.0000	0.0000;
	139	1	0	0	0	0	1	1.015832	-10.108334	138	1	1.1	0.9	23.8800	0.0200	0.0000	0.0000;
	140	1	0.26	0.07	0	0	1	1.0158284	-10.108762	138	1	1.1	0.9	23.8800	0.0200	0.0000	0.0000;
	141	1	0	0	0	50	1	1.0005818	-2.499145	138	1	1.1	0.9	39.7000	-3.2400	0.0000	0.0000;
	142	1	161.34	43.02	0	0	1	0.997985	-2.798498	138	1	1.1	0.9	39.7000	-3.2400	0.0000	0.0000;
	143	1	0	0	0	0	1	1.0187768	6.50236	138	1	1.1	0.9	8.2000	-0.0900	0.0000	0.0000;
	144	2	0	0	0	0	1	1.04	19.035856	13.8	1	1.1	0.9	8.3600	0.0000	0.0000	0.0000;
	145	2	0	0	0	0	1	1.04	9.200971	13.8	1	1.1	0.9	8.2600	0.0000	0.0000	0.0000;
	146	1	0	0	0	0	1	1.0287905	-7.881098	345	2	1.1	0.9	24.4600	-0.0200	0.0000	0.0000;
	147	1	0	0	0	0	1	1.0171175	-8.557608	138	2	1.1	0.9	24.8600	-0.1300	0.0000	0.0000;
	148	1	57.42	15.31	0	0	1	1.0161874	-8.677833	138	2	1.1	0.9	24.8600	-0.1300	0.0000	0.0000;
	149	1	0	0	0	0	1	1.0220666	-13.723278	138	2	1.1	0.9	24.3300	-0.0000	0.0000	0.0000;
	150	1	1.5	0.4	0	0	1	1.0220421	-13.726173	138	2	1.1	0.9	24.3300	-0.0000	0.0000	0.0000;
	151	1	0	0	0	0	1	1.0281863	-8.035489	345	1	1.1	0.9	23.9000	0.0100	0.0000	0.0000;
	152	1	0	0	0	70	1	1.0273611	-10.434389	138	1	1.1	0.9	23.9000	0.0100	0.0000	0.0000;
	153	1	93.15	24.84	0	0	1	1.0261234	-10.584818	138	1	1.1	0.9	23.9000	0.0100	0.0000	0.0000;
	154	1	0	0	0	0	1	1.0102266	-10.979578	138	1	1.1	0.9	23.8800	0.0200	0.0000	0.0000;
	155	1	66.84	17.82	0	0	1	1.0093414	-11.087115	138	1	1.1	0.9	23.8800	0.0200	0.0000	0.0000;
	156	1	0	0	0	0	1	0.9894442	-14.616821	138	1	1.1	0.9	23.9100	0.0100	0.0000	0.0000;
	157	1	105.45	28.12	0	0	1	0.9877808	-14.828219	138	1	1.1	0.9	23.9100	0.0100	0.0000	0.0000;
	158	1	0	0	0	0	1	1.0108477	-13.532131	138	2	1.1	0.9	24.4400	-0.0100	0.0000	0.0000;
	159	1	22.85	6.09	0	0	1	1.0104779	-13.579723	138	2	1.1	0.9	24.4400	-0.0100	0.0000	0.0000;
	160	1	0	0	0	0	1	1.019849	-15.042923	138	2	1.1	0.9	24.3400	-0.0000	0.0000	0.0000;
	161	1	25.95	6.92	0	0	1	1.019465	-15.091831	138	2	1.1	0.9	24.3400	-0.0000	0.0000	0.0000;
	162	1	0	0	0	0	1	1.0290799	-7.842996	345	2	1.1	0.9	24.4400	-0.0100	0.0000	0.0000;
	163	1	0	0	0	0	1	1.0251989	-8.622978	138	2	1.1	0.9	24.4400	-0.0100	0.0000	0.0000;
	164	1	98.15	26.17	0	0	1	1.0235494	-8.827381	138	2	1.1	0.9	24.4400	-0.0100	0.0000	0.0000;
	165	1	0	0	0	0	1	1.0303877	-3.402552	345	1	1.1	0.9	24.1500	-0.0000	0.0000	0.0000;
	166	1	0	0	0	0	1	1.024584	-4.970343	138	1	1.1	0.9	24.1400	-0.0000	0.0000	0.0000;
	167	2	0	0	0	0	1	1.04	-1.181749	13.8	1	1.1	0.9	24.1500	0.0000	0.0000	0.0000;
	168	2	0	0	0	0	1	1.04	0.266644	13.8	1	1.1	0.9	24.1500	0.0000	0.0000	0.0000;
	169	2	0	0	0	0	1	1.04	1.888281	13.8	1	1.1	0.9	24.1500	0.0000	0.0000	0.0000;
	170	1	0	0	0	0	1	1.0116907	-7.684683	138	1	1.1	0.9	24.1400	0.0000	0.0000	0.0000;
	171	1	12.38	3.3	0	0	1	1.0115047	-7.709885	138	1	1.1	0.9	24.1400	0.0000	0.0000	0.0000;
	172	1	0	0	0	0	1	1.0049781	-12.79909	138	1	1.1	0.9	24.9200	-0.1900	0.0000	0.0000;
	173	1	3.14	0.84	0	0	1	1.004931	-12.804343	138	1	1.1	0.9	24.9200	-0.1900	0.0000	0.0000;
	174	1	7.3	1.95	0	0	1	1.0048766	-12.811037	138	1	1.1	0.9	24.9200	-0.1900	0.0000	0.0000;
	175	1	0	0	0	0	1	1.0339354	-3.550348	345	1	1.1	0.9	23.7200	0.0700	0.0000	0.0000;
	176	1	0	0	0	0	1	1.0230476	-2.722604	138	1	1.1	0.9	22.2000	0.1800	0.0000	0.0000;
	177	1	8.78	2.34	0	0	1	1.0229161	-2.739433	138	1	1.1	0.9	22.2000	0.1800	0.0000	0.0000;
	178	1	6.81	1.82	0	0	1	1.0229459	-2.733694	138	1	1.1	0.9	22.2000	0.1800	0.0000	0.0000;
	179	1	0	0	0	0	1	1.0042483	-14.756946	138	2	1.1	0.9	24.4400	-0.0100	0.0000	0.0000;
	180	1	14.14	3.77	0	0	1	1.0040265	-14.781985	138	2	1.1	0.9	24.4400	-0.0100	0.0000	0.0000;
	181	1	0	0	0	60	1	1.0112149	-17.97497	138	1	1.1	0.9	24.2000	0.0000	0.0000	0.0000;
	182	1	82.61	22.03	0	0	1	1.009884	-18.139381	138	1	1.1	0.9	24.2000	0.0000	0.0000	0.0000;
	183	1	0	0	0	0	1	1.0248361	-6.66188	138	1	1.1	0.9	19.1000	0.4300	0.0000	0.0000;
	184	1	30.18	8.05	0	0	1	1.0244398	-6.709043	138	1	1.1	0.9	19.1000	0.4300	0.0000	0.0000;
	185	1	0	0	0	0	1	1.009542	-9.259349	138	1	1.1	0.9	24.1400	0.0000	0.0000	0.0000;
	186	1	45.35	12.09	0	0	1	1.0089212	-9.333731	138	1	1.1	0.9	24.1400	0.0000	0.0000	0.0000;
	187	1	0	0	0	0	1	1.0171045	-11.513978	138	2	1.1	0.9	24.4400	-0.0100	0.0000	0.0000;
	188	1	11.05	2.95	0	0	1	1.0169406	-11.532133	138	2	1.1	0.9	24.4400	-0.0100	0.0000	0.0000;
	189	1	0	0	0	0	1	1.0278199	-17.179459	138	2	1.1	0.9	24.3600	-0.0100	0.0000	0.0000;
	190	1	14.07	3.75	0	0	1	1.0276155	-17.201031	138	2	1.1	0.9	24.3600	-0.0100	0.0000	0.0000;
	191	1	0	0	0	0	1	1.0196265	-15.768651	138	2	1.1	0.9	24.3500	-0.0000	0.0000	0.0000;
	192	1	16.44	4.38	0	0	1	1.0193542	-15.801108	138	2	1.1	0.9	24.3500	-0.0000	0.0000	0.0000;
	193	1	0	0	0	0	1	1.0153022	-14.252592	138	2	1.1	0.9	24.4000	-0.0100	0.0000	0.0000;
	194	1	28.69	7.65	0	0	1	1.0148183	-14.310301	138	2	1.1	0.9	24.4000	-0.0100	0.0000	0.0000;
	195	1	0	0	0	0	1	1.029082	-7.870717	345	2	1.1	0.9	24.4500	-0.0100	0.0000	0.0000;
	196	1	0	0	0	0	1	1.0196956	-10.12389	138	2	1.1	0.9	24.4400	-0.0100	0.0000	0.0000;
	197	2	0	0	0	0	1	1.04	-3.003092	13.8	2	1.1	0.9	24.4500	0.0000	0.0000	0.0000;
	198	2	0	0	0	0	1	1.04	-5.456007	13.8	2	1.1	0.9	24.4500	0.0000	0.0000	0.0000;
	199	1	86.39	23.04	0	0	1	1.0183547	-10.272974	138	2	1.1	0.9	24.4400	-0.0100	0.0000	0.0000;
	200	1	0	0	0	0	1	1.0206965	-9.381187	138	2	1.1	0.9	24.4400	-0.0100	0.0000	0.0000;
...
];

%% generator data
%	bus	Pg	Qg	Qmax	Qmin	Vg	mBase	status	Pmax	Pmin	Pc1	Pc2	Qc1min	Qc1max	Qc2min	Qc2max	ramp_agc	ramp_10	ramp_30	ramp_q	apf	mu_Pmax	mu_Pmin	mu_Qmax	mu_Qmin
mpc.gen = [
	9	771.8	105.75	359.66	-94.16	1.04	926.16	1	771.8	231.54	0	0	0	0	0	0	0	0	0	0	0	0.0000	0.0000	0.0000	0.0000;
	16	444.45	84.69	163.56	-36.44	1.04	533.34	1	444.45	133.33	0	0	0	0	0	0	0	0	0	0	0	0.0000	0.0000	0.0000	0.0000;
	17	888.9	150.17	327.12	-72.89	1.04	1066.68	1	888.9	266.67	0	0	0	0	0	0	0	0	0	0	0	0.0000	0.0000	0.0000	0.0000;
	18	157.6	21.68	58	-12.92	1.04	189.12	1	157.6	47.28	0	0	0	0	0	0	0	0	0	0	0	0.0000	0.0000	0.0000	0.0000;
	49	1.3	0.61	0.61	-0.16	1.04	1.56	1	1.3	0.39	0	0	0	0	0	0	0	0	0	0	0	0.0000	0.0000	0.0000	0.0000;
	50	2.6	1.21	1.21	-0.32	1.04	3.12	1	2.6	0.78	0	0	0	0	0	0	0	0	0	0	0	0.0000	0.0000	0.0000	0.0000;
	63	0	0	1.63	-0.36	1.04	3.84	0	3.2	0.96	0	0	0	0	0	0	0	0	0	0	0	0.0000	0.0000	0.0000	0.0000;
	71	4	1.54	1.54	-0.2	1.04	4.8	1	4	1.2	0	0	0	0	0	0	0	0	0	0	0	0.0000	0.0000	0.0000	0.0000;
	72	2	0.77	0.77	-0.1	1.04	2.4	1	2	0.6	0	0	0	0	0	0	0	0	0	0	0	0.0000	0.0000	0.0000	0.0000;
	73	1.4	0.54	0.54	-0.07	1.04	1.68	1	1.4	0.42	0	0	0	0	0	0	0	0	0	0	0	0.0000	0.0000	0.0000	0.0000;
	82	361.9	41.13	138.97	-17.73	1.04	434.28	1	361.9	108.57	0	0	0	0	0	0	0	0	0	0	0	0.0000	0.0000	0.0000	0.0000;
	125	0	0	62.21	-7.94	1.04	194.4	0	162	48.6	0	0	0	0	0	0	0	0	0	0	0	0.0000	0.0000	0.0000	0.0000;
	126	0	0	62.21	-7.94	1.04	194.4	0	162	48.6	0	0	0	0	0	0	0	0	0	0	0	0.0000	0.0000	0.0000	0.0000;
	127	162	26.1	62.21	-7.94	1.04	194.4	1	162	48.6	0	0	0	0	0	0	0	0	0	0	0	0.0000	0.0000	0.0000	0.0000;
	128	162	62.21	62.21	-7.94	1.04	194.4	1	162	48.6	0	0	0	0	0	0	0	0	0	0	0	0.0000	0.0000	0.0000	0.0000;
	144	602.55	111.6	221.74	-49.41	1.04	723.06	1	602.55	180.76	0	0	0	0	0	0	0	0	0	0	0	0.0000	0.0000	0.0000	0.0000;
	145	300.55	127.35	221.74	-49.41	1.04	723.06	1	602.55	180.76	0	0	0	0	0	0	0	0	0	0	0	0.0000	0.0000	0.0000	0.0000;
	167	193.5	45.92	74.3	-9.48	1.04	232.2	1	193.5	58.05	0	0	0	0	0	0	0	0	0	0	0	0.0000	0.0000	0.0000	0.0000;
	168	193.5	32.78	74.3	-9.48	1.04	232.2	1	193.5	58.05	0	0	0	0	0	0	0	0	0	0	0	0.0000	0.0000	0.0000	0.0000;
	169	387	51.63	148.61	-18.96	1.04	464.4	1	387	116.1	0	0	0	0	0	0	0	0	0	0	0	0.0000	0.0000	0.0000	0.0000;
	197	293.6	43.37	136.82	-35.82	1.04	352.32	1	293.6	88.08	0	0	0	0	0	0	0	0	0	0	0	0.0000	0.0000	0.0000	0.0000;
	198	207.3	52.65	96.6	-25.29	1.04	248.76	1	207.3	62.19	0	0	0	0	0	0	0	0	0	0	0	0.0000	0.0000	0.0000	0.0000;
	222	5.2	2	2	-0.25	1.04	6.24	1	5.2	1.56	0	0	0	0	0	0	0	0	0	0	0	0.0000	0.0000	0.0000	0.0000;
	223	18	6.91	6.91	-0.88	1.04	21.6	1	18	5.4	0	0	0	0	0	0	0	0	0	0	0	0.0000	0.0000	0.0000	0.0000;
	224	511.2	40.11	196.3	-25.05	1.04	613.44	1	511.2	153.36	0	0	0	0	0	0	0	0	0	0	0	0.0000	0.0000	0.0000	0.0000;
	225	514.8	69.67	197.68	-25.23	1.04	617.76	1	514.8	154.44	0	0	0	0	0	0	0	0	0	0	0	0.0000	0.0000	0.0000	0.0000;
	231	2.9	1.35	1.35	-0.35	1.04	3.48	1	2.9	0.87	0	0	0	0	0	0	0	0	0	0	0	0.0000	0.0000	0.0000	0.0000;
	248	0	0	67.8	-14.79	1.04	159.84	0	133.2	39.96	0	0	0	0	0	0	0	0	0	0	0	0.0000	0.0000	0.0000	0.0000;
	249	0	0	67.8	-14.79	1.04	159.84	0	133.2	39.96	0	0	0	0	0	0	0	0	0	0	0	0.0000	0.0000	0.0000	0.0000;
	250	0	0	271.2	-59.14	1.04	639.36	0	532.8	159.84	0	0	0	0	0	0	0	0	0	0	0	0.0000	0.0000	0.0000	0.0000;
	254	0	0	1.91	-0.5	1.04	4.92	0	4.1	1.23	0	0	0	0	0	0	0	0	0	0	0	0.0000	0.0000	0.0000	0.0000;
	255	0	0	1.54	-0.4	1.04	3.96	0	3.3	0.99	0	0	0	0	0	0	0	0	0	0	0	0.0000	0.0000	0.0000	0.0000;
	256	0	0	1.35	-0.35	1.04	3.48	0	2.9	0.87	0	0	0	0	0	0	0	0	0	0	0	0.0000	0.0000	0.0000	0.0000;
	257	0	0	2.52	-0.66	1.04	6.48	0	5.4	1.62	0	0	0	0	0	0	0	0	0	0	0	0.0000	0.0000	0.0000	0.0000;
	258	1.1	0.51	0.51	-0.13	1.04	1.32	1	1.1	0.33	0	0	0	0	0	0	0	0	0	0	0	0.0000	0.0000	0.0000	0.0000;
	264	0	0	19.95	-4.35	1.04	47.04	0	39.2	11.76	0	0	0	0	0	0	0	0	0	0	0	0.0000	0.0000	0.0000	0.0000;
	265	0	0	5.4	-1.18	1.04	12.72	0	10.6	3.18	0	0	0	0	0	0	0	0	0	0	0	0.0000	0.0000	0.0000	0.0000;
	275	0	0	51.51	-11.23	1.04	121.44	0	101.2	30.36	0	0	0	0	0	0	0	0	0	0	0	0.0000	0.0000	0.0000	0.0000;
	301	2.9	1.35	1.35	-0.35	1.04	3.48	1	2.9	0.87	0	0	0	0	0	0	0	0	0	0	0	0.0000	0.0000	0.0000	0.0000;
	302	2.9	1.35	1.35	-0.35	1.04	3.48	1	2.9	0.87	0	0	0	0	0	0	0	0	0	0	0	0.0000	0.0000	0.0000	0.0000;
	305	1	0.38	0.38	-0.05	1.04	1.2	1	1	0.3	0	0	0	0	0	0	0	0	0	0	0	0.0000	0.0000	0.0000	0.0000;
	306	2.4	0.92	0.92	-0.12	1.04	2.88	1	2.4	0.72	0	0	0	0	0	0	0	0	0	0	0	0.0000	0.0000	0.0000	0.0000;
	319	42.3	16.24	16.24	-2.07	1.04	50.76	1	42.3	12.69	0	0	0	0	0	0	0	0	0	0	0	0.0000	0.0000	0.0000	0.0000;
	350	15	5.76	5.76	-0.74	1.04	18	1	15	4.5	0	0	0	0	0	0	0	0	0	0	0	0.0000	0.0000	0.0000	0.0000;
	351	6.2	2.38	2.38	-0.3	1.04	7.44	1	6.2	1.86	0	0	0	0	0	0	0	0	0	0	0	0.0000	0.0000	0.0000	0.0000;
	352	14.4	5.53	5.53	-0.71	1.04	17.28	1	14.4	4.32	0	0	0	0	0	0	0	0	0	0	0	0.0000	0.0000	0.0000	0.0000;
	353	74	28.42	28.42	-3.63	1.04	88.8	1	74	22.2	0	0	0	0	0	0	0	0	0	0	0	0.0000	0.0000	0.0000	0.0000;
	361	0	0	0.81	-0.18	1.04	1.92	0	1.6	0.48	0	0	0	0	0	0	0	0	0	0	0	0.0000	0.0000	0.0000	0.0000;
	362	0	0	5.6	-1.22	1.04	13.2	0	11	3.3	0	0	0	0	0	0	0	0	0	0	0	0.0000	0.0000	0.0000	0.0000;
	363	0	0	1.63	-0.36	1.04	3.84	0	3.2	0.96	0	0	0	0	0	0	0	0	0	0	0	0.0000	0.0000	0.0000	0.0000;
	388	0	0	5.09	-1.11	1.04	12	0	10	3	0	0	0	0	0	0	0	0	0	0	0	0.0000	0.0000	0.0000	0.0000;
	389	0	0	88.23	-19.24	1.04	208	0	173.33	52	0	0	0	0	0	0	0	0	0	0	0	0.0000	0.0000	0.0000	0.0000;
	390	0	0	88.23	-19.24	1.04	208	0	173.33	52	0	0	0	0	0	0	0	0	0	0	0	0.0000	0.0000	0.0000	0.0000;
	391	0	0	88.23	-19.24	1.04	208	0	173.33	52	0	0	0	0	0	0	0	0	0	0	0	0.0000	0.0000	0.0000	0.0000;
	392	0	0	59.25	-12.92	1.04	139.68	0	116.4	34.92	0	0	0	0	0	0	0	0	0	0	0	0.0000	0.0000	0.0000	0.0000;
	393	0	0	59.25	-12.92	1.04	139.68	0	116.4	34.92	0	0	0	0	0	0	0	0	0	0	0	0.0000	0.0000	0.0000	0.0000;
	394	0	0	59.25	-12.92	1.04	139.68	0	116.4	34.92	0	0	0	0	0	0	0	0	0	0	0	0.0000	0.0000	0.0000	0.0000;
	395	0	0	59.25	-12.92	1.04	139.68	0	116.4	34.92	0	0	0	0	0	0	0	0	0	0	0	0.0000	0.0000	0.0000	0.0000;
	396	0	0	59.25	-12.92	1.04	139.68	0	116.4	34.92	0	0	0	0	0	0	0	0	0	0	0	0.0000	0.0000	0.0000	0.0000;
	409	0	0	50.9	-11.1	1.04	120	0	100	30	0	0	0	0	0	0	0	0	0	0	0	0.0000	0.0000	0.0000	0.0000;
	410	77.97	14.91	69.71	-15.2	1.04	164.34	1	136.95	41.08	0	0	0	0	0	0	0	0	0	0	0	0.0000	0.0000	0.0000	0.0000;
	411	79.43	25.56	69.71	-15.2	1.04	164.34	1	136.95	41.08	0	0	0	0	0	0	0	0	0	0	0	0.0000	0.0000	0.0000	0.0000;
	412	79.43	22.36	69.71	-15.2	1.04	164.34	1	136.95	41.08	0	0	0	0	0	0	0	0	0	0	0	0.0000	0.0000	0.0000	0.0000;
	413	60.26	14.63	69.71	-15.2	1.04	164.34	1	136.95	41.08	0	0	0	0	0	0	0	0	0	0	0	0.0000	0.0000	0.0000	0.0000;
	414	0	0	56.55	-12.33	1.04	133.32	0	111.1	33.33	0	0	0	0	0	0	0	0	0	0	0	0.0000	0.0000	0.0000	0.0000;
	430	1	0.38	0.38	-0.05	1.04	1.2	1	1	0.3	0	0	0	0	0	0	0	0	0	0	0	0.0000	0.0000	0.0000	0.0000;
	431	3.3	1.27	1.27	-0.16	1.04	3.96	1	3.3	0.99	0	0	0	0	0	0	0	0	0	0	0	0.0000	0.0000	0.0000	0.0000;
	432	1.2	0.46	0.46	-0.06	1.04	1.44	1	1.2	0.36	0	0	0	0	0	0	0	0	0	0	0	0.0000	0.0000	0.0000	0.0000;
	433	6.7	2.57	2.57	-0.33	1.04	8.04	1	6.7	2.01	0	0	0	0	0	0	0	0	0	0	0	0.0000	0.0000	0.0000	0.0000;
	434	4.3	1.65	1.65	-0.21	1.04	5.16	1	4.3	1.29	0	0	0	0	0	0	0	0	0	0	0	0.0000	0.0000	0.0000	0.0000;
	435	0	0	75.65	-9.65	1.04	236.4	0	197	59.1	0	0	0	0	0	0	0	0	0	0	0	0.0000	0.0000	0.0000	0.0000;
	436	0	0	75.65	-9.65	1.04	236.4	0	197	59.1	0	0	0	0	0	0	0	0	0	0	0	0.0000	0.0000	0.0000	0.0000;
	437	197	52.73	75.65	-9.65	1.04	236.4	1	197	59.1	0	0	0	0	0	0	0	0	0	0	0	0.0000	0.0000	0.0000	0.0000;
	438	197	40.14	75.65	-9.65	1.04	236.4	1	197	59.1	0	0	0	0	0	0	0	0	0	0	0	0.0000	0.0000	0.0000	0.0000;
	439	197	65.63	75.65	-9.65	1.04	236.4	1	197	59.1	0	0	0	0	0	0	0	0	0	0	0	0.0000	0.0000	0.0000	0.0000;
	442	0	0	54.97	-11.99	1.04	129.6	0	108	32.4	0	0	0	0	0	0	0	0	0	0	0	0.0000	0.0000	0.0000	0.0000;
	443	0	0	89.07	-19.43	1.04	210	0	175	52.5	0	0	0	0	0	0	0	0	0	0	0	0.0000	0.0000	0.0000	0.0000;
	444	0	0	1.68	-0.37	1.04	3.96	0	3.3	0.99	0	0	0	0	0	0	0	0	0	0	0	0.0000	0.0000	0.0000	0.0000;
	455	66.85	56.51	113.42	-24.73	1.04	267.4	1	222.83	66.85	0	0	0	0	0	0	0	0	0	0	0	0.0000	0.0000	0.0000	0.0000;
	456	133.7	55.65	226.84	-49.47	1.04	534.8	1	445.67	133.7	0	0	0	0	0	0	0	0	0	0	0	0.0000	0.0000	0.0000	0.0000;
	458	109.6	0	0	0	1.04	131.52	1	109.6	32.88	0	0	0	0	0	0	0	0	0	0	0	0.0000	0.0000	0.0000	0.0000;
	463	0	0	3.36	-0.88	1.04	8.64	0	7.2	2.16	0	0	0	0	0	0	0	0	0	0	0	0.0000	0.0000	0.0000	0.0000;
	480	56	9.62	21.5	-2.74	1.04	67.2	1	56	16.8	0	0	0	0	0	0	0	0	0	0	0	0.0000	0.0000	0.0000	0.0000;
	481	45	12.1	17.28	-2.21	1.04	54	1	45	13.5	0	0	0	0	0	0	0	0	0	0	0	0.0000	0.0000	0.0000	0.0000;
	482	45	17.28	17.28	-2.21	1.04	54	1	45	13.5	0	0	0	0	0	0	0	0	0	0	0	0.0000	0.0000	0.0000	0.0000;
	483	24	6.25	9.22	-1.18	1.04	28.8	1	24	7.2	0	0	0	0	0	0	0	0	0	0	0	0.0000	0.0000	0.0000	0.0000;
	484	28	10.75	10.75	-1.37	1.04	33.6	1	28	8.4	0	0	0	0	0	0	0	0	0	0	0	0.0000	0.0000	0.0000	0.0000;
	494	0	0	2.7	-0.71	1.04	6.96	0	5.8	1.74	0	0	0	0	0	0	0	0	0	0	0	0.0000	0.0000	0.0000	0.0000;
	497	60	23.04	23.04	-2.94	1.04	72	1	60	18	0	0	0	0	0	0	0	0	0	0	0	0.0000	0.0000	0.0000	0.0000;
	498	18	6.91	6.91	-0.88	1.04	21.6	1	18	5.4	0	0	0	0	0	0	0	0	0	0	0	0.0000	0.0000	0.0000	0.0000;
];

%% branch data
%	fbus	tbus	r	x	b	rateA	rateB	rateC	ratio	angle	status	angmin	angmax	Pf	Qf	Pt	Qt	mu_Sf	mu_St	mu_angmin	mu_angmax
mpc.branch = [
	2	1	0.000531	0.00314	0	76.5	0	0	0	0	1	0	0	-42.8000	-11.4100	42.8100	11.4700	0.0000	0.0000	0.0000	0.0000;
	44	1	0.005479	0.050257	0.01781	320.29	0	0	0	0	1	0	0	36.3400	7.9400	-36.2600	-9.1000	0.0000	0.0000	0.0000	0.0000;
	421	1	0.005369	0.051555	0.01664	320.29	0	0	0	0	1	0	0	6.5500	0.6900	-6.5500	-2.3800	0.0000	0.0000	0.0000	0.0000;
	4	3	0.000692	0.003518	0	225.06	0	0	0	0	1	0	0	-132.6900	-35.3800	132.8200	36.0400	0.0000	0.0000	0.0000	0.0000;
	62	3	0.002718	0.026098	0.00842	320.29	0	0	0	0	1	0	0	12.1800	12.1500	-12.1700	-12.9200	0.0000	0.0000	0.0000	0.0000;
	3	479	0.007258	0.069699	0.0225	320.29	0	0	0	0	1	0	0	-120.6500	-23.1200	121.7300	31.1300	0.0000	0.0000	0.0000	0.0000;
	6	5	0.000556	0.003563	0	4.49	0	0	0	0	1	0	0	-3.2100	-0.8600	3.2100	0.8600	0.0000	0.0000	0.0000	0.0000;
	316	5	0.002445	0.02348	0.00758	320.29	0	0	0	0	1	0	0	-115.8500	33.4700	116.1900	-30.9600	0.0000	0.0000	0.0000	0.0000;
	401	5	0.004886	0.04692	0.01515	320.29	0	0	0	0	1	0	0	120.1200	-24.7200	-119.4000	30.1100	0.0000	0.0000	0.0000	0.0000;
	8	7	0.000355	0.0129	0	567	0	0	1	0	1	0	0	-257.0200	-43.8800	257.2500	52.2000	0.0000	0.0000	0.0000	0.0000;
	9	7	0.00012	0.01362	0	680	0	0	1	0	1	0	0	385.9000	52.8700	-385.7300	-33.7700	0.0000	0.0000	0.0000	0.0000;
	9	7	0.00012	0.01362	0	680	0	0	1	0	1	0	0	385.9000	52.8700	-385.7300	-33.7700	0.0000	0.0000	0.0000	0.0000;
	7	232	0.001119	0.014808	0.31205	1493.89	0	0	0	0	1	0	0	229.5700	2.2500	-229.0200	-28.1000	0.0000	0.0000	0.0000	0.0000;
	7	262	0.000947	0.013749	0.23994	1493.89	0	0	0	0	1	0	0	284.6400	13.0900	-283.9200	-28.0900	0.0000	0.0000	0.0000	0.0000;
	8	287	0.003727	0.035786	0.01155	320.29	0	0	0	0	1	0	0	198.2700	21.4800	-196.8700	-9.1800	0.0000	0.0000	0.0000	0.0000;
	8	457	0.001974	0.018955	0.00612	320.29	0	0	0	0	1	0	0	58.7500	22.4000	-58.6700	-22.3300	0.0000	0.0000	0.0000	0.0000;
	11	10	0.000655	0.003201	0	3.96	0	0	0	0	1	0	0	-2.4700	-0.6600	2.4700	0.6600	0.0000	0.0000	0.0000	0.0000;
	342	10	0.002825	0.027123	0.00876	320.29	0	0	0	0	1	0	0	-52.5000	-14.3700	52.5900	14.2500	0.0000	0.0000	0.0000	0.0000;
	10	349	0.001402	0.01346	0.00434	320.29	0	0	0	0	1	0	0	-55.0600	-14.9100	55.1000	14.8800	0.0000	0.0000	0.0000	0.0000;
	13	12	0.000623	0.003134	0	65.5	0	0	0	0	1	0	0	-37.1600	-9.9100	37.1700	9.9600	0.0000	0.0000	0.0000	0.0000;
	12	216	0.003962	0.038048	0.01228	320.29	0	0	0	0	1	0	0	29.1000	-1.2600	-29.0700	0.3800	0.0000	0.0000	0.0000	0.0000;
	12	304	0.00231	0.021191	0.00751	320.29	0	0	0	0	1	0	0	89.5500	21.5400	-89.3500	-20.4400	0.0000	0.0000	0.0000	0.0000;
	12	441	0.001565	0.015025	0.00485	320.29	0	0	0	0	1	0	0	-155.8200	-30.2300	156.2200	33.6000	0.0000	0.0000	0.0000	0.0000;
	15	14	0.000208	0.01122	0	682	0	0	1	0	1	0	0	-429.9000	-61.4800	430.2800	81.7700	0.0000	0.0000	0.0000	0.0000;
	16	14	0.000326	0.01202	0	596	0	0	1	0	1	0	0	444.4500	84.6900	-443.8300	-61.9400	0.0000	0.0000	0.0000	0.0000;
	17	14	0.000279	0.01438	0	674	0	0	1	0	1	0	0	444.2800	76.2500	-443.7500	-49.2400	0.0000	0.0000	0.0000	0.0000;
	17	14	0.000354	0.01438	0	674	0	0	1	0	1	0	0	444.6200	73.9200	-443.9500	-46.9100	0.0000	0.0000	0.0000	0.0000;
	18	14	0.001417	0.05115	0	340	0	0	1	0	1	0	0	157.6000	21.6800	-157.2700	-9.7100	0.0000	0.0000	0.0000	0.0000;
	386	14	0.000317	0.004547	0.08136	1493.89	0	0	0	0	1	0	0	-528.6200	-39.7000	529.4600	43.2000	0.0000	0.0000	0.0000	0.0000;
	386	14	0.00032	0.00455	0.08136	1493.9	0	0	0	0	1	0	0	-528.2200	-39.3400	529.0700	42.8400	0.0000	0.0000	0.0000	0.0000;
	15	91	0.004799	0.046085	0.01488	320.29	0	0	0	0	1	0	0	62.3100	14.8900	-62.1200	-14.6000	0.0000	0.0000	0.0000	0.0000;
	15	230	0.010894	0.104607	0.03377	320.29	0	0	0	0	1	0	0	116.9100	3.4000	-115.4800	6.8500	0.0000	0.0000	0.0000	0.0000;
	367	15	0.001918	0.018416	0.00594	320.29	0	0	0	0	1	0	0	-170.8700	-21.0000	171.4200	25.6900	0.0000	0.0000	0.0000	0.0000;
	15	369	0.001854	0.01701	0.00603	320.29	0	0	0	0	1	0	0	57.9300	15.1300	-57.8600	-15.1700	0.0000	0.0000	0.0000	0.0000;
	15	473	0.009225	0.084621	0.02999	320.29	0	0	0	0	1	0	0	21.3300	2.3800	-21.2900	-5.1100	0.0000	0.0000	0.0000	0.0000;
	20	19	0.000541	0.003886	0	7.53	0	0	0	0	1	0	0	-4.5400	-1.2100	4.5400	1.2100	0.0000	0.0000	0.0000	0.0000;
	19	112	0.004722	0.045345	0.01464	320.29	0	0	0	0	1	0	0	-19.8000	10.9800	19.8200	-12.2600	0.0000	0.0000	0.0000	0.0000;
	193	19	0.002221	0.021323	0.00688	320.29	0	0	0	0	1	0	0	2.1500	-15.0800	-2.1500	14.4100	0.0000	0.0000	0.0000	0.0000;
	19	272	0.002293	0.02202	0.00711	320.29	0	0	0	0	1	0	0	17.4000	-26.6100	-17.3800	26.0800	0.0000	0.0000	0.0000	0.0000;
	22	21	0.000587	0.003174	0	254.15	0	0	0	0	1	0	0	-148.7000	-39.6500	148.8400	40.3900	0.0000	0.0000	0.0000	0.0000;
	21	112	0.005092	0.048896	0.01578	320.29	0	0	0	0	1	0	0	50.6400	-14.8400	-50.5000	14.5500	0.0000	0.0000	0.0000	0.0000;
	21	196	0.002207	0.020247	0.00718	320.29	0	0	0	0	1	0	0	-199.4700	-25.5500	200.3500	32.8400	0.0000	0.0000	0.0000	0.0000;
	24	23	0.00033	0.01764	0	626	0	0	1	0	1	0	0	-298.2200	-72.7600	298.5300	88.9800	0.0000	0.0000	0.0000	0.0000;
	151	23	0.000182	0.002607	0.04665	1493.89	0	0	0	0	1	0	0	-71.5100	37.6700	71.5200	-42.4300	0.0000	0.0000	0.0000	0.0000;
	23	386	0.001642	0.023851	0.41623	1493.89	0	0	0	0	1	0	0	-247.0400	4.9600	248.0000	-34.9000	0.0000	0.0000	0.0000	0.0000;
	23	464	0.000947	0.012532	0.26411	1493.89	0	0	0	0	1	0	0	-14.3600	-22.5500	14.3600	-5.3200	0.0000	0.0000	0.0000	0.0000;
	23	471	0.000532	0.007041	0.14837	1493.89	0	0	0	0	1	0	0	-108.6500	-28.9600	108.7100	14.0900	0.0000	0.0000	0.0000	0.0000;
	25	24	0.000613	0.003629	0	3.56	0	0	0	0	1	0	0	-2.2800	-0.6100	2.2800	0.6100	0.0000	0.0000	0.0000	0.0000;
	26	24	0.000563	0.003729	0	29.46	0	0	0	0	1	0	0	-21.6600	-5.7800	21.6700	5.8000	0.0000	0.0000	0.0000	0.0000;
	210	24	0.002218	0.020344	0.00721	320.29	0	0	0	0	1	0	0	-123.7300	-31.0500	124.0900	33.6100	0.0000	0.0000	0.0000	0.0000;
	24	360	0.002365	0.022714	0.00733	320.29	0	0	0	0	1	0	0	150.1900	32.7500	-149.6400	-28.2500	0.0000	0.0000	0.0000	0.0000;
	28	27	0.000687	0.003963	0	108.61	0	0	0	0	1	0	0	-62.9300	-16.7800	62.9600	16.9500	0.0000	0.0000	0.0000	0.0000;
	27	68	0.005607	0.053845	0.01738	320.29	0	0	0	0	1	0	0	-97.0800	18.6600	97.6200	-15.2900	0.0000	0.0000	0.0000	0.0000;
	27	382	0.00337	0.030912	0.01095	320.29	0	0	0	0	1	0	0	34.1200	15.7200	-34.0700	-16.4100	0.0000	0.0000	0.0000	0.0000;
	30	29	0.000616	0.003298	0	156.98	0	0	0	0	1	0	0	-99.9700	-26.6600	100.0400	27.0100	0.0000	0.0000	0.0000	0.0000;
	454	29	0.00247	0.022656	0.00803	320.29	0	0	0	0	1	0	0	114.3400	13.2200	-114.0200	-11.1300	0.0000	0.0000	0.0000	0.0000;
	29	491	0.005607	0.053837	0.01738	320.29	0	0	0	0	1	0	0	13.9900	-15.8800	-13.9600	14.3200	0.0000	0.0000	0.0000	0.0000;
	32	31	0.000625	0.003429	0	15.7	0	0	0	0	1	0	0	-9.7600	-2.6000	9.7700	2.6100	0.0000	0.0000	0.0000	0.0000;
	31	85	0.005303	0.050926	0.01644	320.29	0	0	0	0	1	0	0	-41.1800	16.6400	41.2800	-17.4300	0.0000	0.0000	0.0000	0.0000;
	104	31	0.005526	0.053062	0.01713	320.29	0	0	0	0	1	0	0	-16.5000	-26.0900	16.5500	24.7500	0.0000	0.0000	0.0000	0.0000;
	31	189	0.005707	0.0548	0.01769	320.29	0	0	0	0	1	0	0	5.0100	7.2700	-5.0100	-9.1000	0.0000	0.0000	0.0000	0.0000;
	31	205	0.007797	0.074869	0.02417	320.29	0	0	0	0	1	0	0	-7.4200	14.3200	7.4400	-16.6600	0.0000	0.0000	0.0000	0.0000;
	31	218	0.008273	0.079446	0.02565	320.29	0	0	0	0	1	0	0	-32.3700	10.1200	32.4600	-11.9600	0.0000	0.0000	0.0000	0.0000;
	267	31	0.004897	0.047021	0.01518	320.29	0	0	0	0	1	0	0	-49.4700	-30.9400	49.6300	30.8800	0.0000	0.0000	0.0000	0.0000;
	34	33	0.000624	0.003284	0	43.35	0	0	0	0	1	0	0	-25.0000	-6.6700	25.0000	6.6900	0.0000	0.0000	0.0000	0.0000;
	83	33	0.005287	0.050764	0.01639	320.29	0	0	0	0	1	0	0	-13.9700	-3.1200	13.9800	1.5600	0.0000	0.0000	0.0000	0.0000;
	112	33	0.007061	0.067808	0.02189	320.29	0	0	0	0	1	0	0	39.0900	7.0700	-38.9800	-8.2500	0.0000	0.0000	0.0000	0.0000;
	36	35	0.000583	0.00303	0	62.87	0	0	0	0	1	0	0	-43.3500	-11.5600	43.3600	11.6200	0.0000	0.0000	0.0000	0.0000;
	191	35	0.004038	0.037042	0.01313	320.29	0	0	0	0	1	0	0	6.3700	4.0500	-6.3600	-5.3900	0.0000	0.0000	0.0000	0.0000;
	35	399	0.005636	0.054123	0.01747	320.29	0	0	0	0	1	0	0	-37.0000	-6.2300	37.0700	5.1400	0.0000	0.0000	0.0000	0.0000;
	38	37	0.000546	0.003823	0	0.18	0	0	0	0	1	0	0	-0.1300	-0.0300	0.1300	0.0300	0.0000	0.0000	0.0000	0.0000;
	76	37	0.001474	0.014156	0.00457	320.29	0	0	0	0	1	0	0	110.8100	-21.9100	-110.6300	23.1800	0.0000	0.0000	0.0000	0.0000;
	37	176	0.003039	0.02918	0.00942	320.29	0	0	0	0	1	0	0	110.5000	-23.2100	-110.1300	25.8100	0.0000	0.0000	0.0000	0.0000;
	40	39	0.0007	0.02531	0	428	0	0	1	0	1	0	0	-88.3200	-22.7300	88.3800	24.7400	0.0000	0.0000	0.0000	0.0000;
	39	332	0.000403	0.005786	0.10355	1493.89	0	0	0	0	1	0	0	-23.3700	-0.6100	23.3800	-10.3300	0.0000	0.0000	0.0000	0.0000;
	39	428	0.000521	0.006898	0.14538	1493.89	0	0	0	0	1	0	0	-65.0000	-24.1300	65.0300	8.9900	0.0000	0.0000	0.0000	0.0000;
	41	40	0.000631	0.003923	0	97.47	0	0	0	0	1	0	0	-57.9900	-15.4600	58.0100	15.6000	0.0000	0.0000	0.0000	0.0000;
	40	131	0.002909	0.026681	0.00946	320.29	0	0	0	0	1	0	0	30.3100	7.1300	-30.2800	-7.8700	0.0000	0.0000	0.0000	0.0000;
	43	42	0.000542	0.003119	0	7.7	0	0	0	0	1	0	0	-4.4600	-1.1900	4.4600	1.1900	0.0000	0.0000	0.0000	0.0000;
	81	42	0.002361	0.02166	0.00768	320.29	0	0	0	0	1	0	0	71.5100	2.1700	-71.3900	-1.9300	0.0000	0.0000	0.0000	0.0000;
	42	191	0.006368	0.05842	0.0207	320.29	0	0	0	0	1	0	0	66.9300	0.7400	-66.6600	-0.4000	0.0000	0.0000	0.0000	0.0000;
	45	44	0.000637	0.003876	0	2.84	0	0	0	0	1	0	0	-2.0300	-0.5400	2.0300	0.5400	0.0000	0.0000	0.0000	0.0000;
	44	200	0.002105	0.019311	0.00684	320.29	0	0	0	0	1	0	0	-38.3700	-8.4800	38.4000	8.0600	0.0000	0.0000	0.0000	0.0000;
	47	46	0.000602	0.003454	0	63	0	0	0	0	1	0	0	-43.4100	-11.5800	43.4200	11.6500	0.0000	0.0000	0.0000	0.0000;
	46	156	0.006611	0.063482	0.02049	320.29	0	0	0	0	1	0	0	41.3600	18.4200	-41.2300	-19.1400	0.0000	0.0000	0.0000	0.0000;
	238	46	0.003134	0.030093	0.00971	320.29	0	0	0	0	1	0	0	85.0400	31.4800	-84.7900	-30.0700	0.0000	0.0000	0.0000	0.0000;
	49	48	0.01331	0.27853	0	57	0	0	1	0	1	0	0	1.3000	0.6100	-1.3000	-0.6000	0.0000	0.0000	0.0000	0.0000;
	50	48	0.00715	0.16356	0	70	0	0	1	0	1	0	0	2.6000	1.2100	-2.6000	-1.2000	0.0000	0.0000	0.0000	0.0000;
	51	48	0.000658	0.003672	0	0.56	0	0	0	0	1	0	0	-0.3500	-0.0900	0.3500	0.0900	0.0000	0.0000	0.0000	0.0000;
	52	48	0.00062	0.003342	0	37.95	0	0	0	0	1	0	0	-23.3900	-6.2400	23.3900	6.2600	0.0000	0.0000	0.0000	0.0000;
	358	48	0.0045	0.041283	0.01463	320.29	0	0	0	0	1	0	0	-3.1200	2.7700	3.1300	-4.2300	0.0000	0.0000	0.0000	0.0000;
	419	48	0.004637	0.044525	0.01437	320.29	0	0	0	0	1	0	0	23.0000	-0.8800	-22.9700	-0.3200	0.0000	0.0000	0.0000	0.0000;
	54	53	0.00068	0.003061	0	51.27	0	0	0	0	1	0	0	-34.8100	-9.2800	34.8200	9.3200	0.0000	0.0000	0.0000	0.0000;
	233	53	0.002362	0.021667	0.00768	320.29	0	0	0	0	1	0	0	98.2700	1.1800	-98.0500	0.0400	0.0000	0.0000	0.0000	0.0000;
	53	276	0.001502	0.014424	0.00466	320.29	0	0	0	0	1	0	0	63.2300	-9.3600	-63.1700	9.4500	0.0000	0.0000	0.0000	0.0000;
	56	55	0.000641	0.00331	0	3.15	0	0	0	0	1	0	0	-2.2500	-0.6000	2.2500	0.6000	0.0000	0.0000	0.0000	0.0000;
	55	66	0.00433	0.041575	0.01342	320.29	0	0	0	0	1	0	0	-36.7400	-1.9400	36.8000	1.0800	0.0000	0.0000	0.0000	0.0000;
	55	500	0.004481	0.041102	0.01457	320.29	0	0	0	0	1	0	0	34.4900	1.3300	-34.4400	-2.3700	0.0000	0.0000	0.0000	0.0000;
	58	57	0.00012	0.01762	0	675	0	0	1	0	1	0	0	-282.8700	-38.0900	282.9700	52.3800	0.0000	0.0000	0.0000	0.0000;
	58	57	0.00012	0.01762	0	675	0	0	1	0	1	0	0	-282.8700	-38.0900	282.9700	52.3800	0.0000	0.0000	0.0000	0.0000;
	57	123	0.001682	0.024427	0.42627	1493.89	0	0	0	0	1	0	0	-438.1400	-51.3100	441.3200	53.1000	0.0000	0.0000	0.0000	0.0000;
	440	57	0.000601	0.008726	0.15227	1493.89	0	0	0	0	1	0	0	127.9000	39.4200	-127.7900	-53.4600	0.0000	0.0000	0.0000	0.0000;
	59	58	0.00062	0.003848	0	252.93	0	0	0	0	1	0	0	-140.9400	-37.5800	141.0700	38.4000	0.0000	0.0000	0.0000	0.0000;
	58	253	0.004532	0.04352	0.01405	320.29	0	0	0	0	1	0	0	95.1500	17.2500	-94.7300	-14.5800	0.0000	0.0000	0.0000	0.0000;
	322	58	0.002019	0.019385	0.00626	320.29	0	0	0	0	1	0	0	-164.2300	-5.6300	164.7800	10.2600	0.0000	0.0000	0.0000	0.0000;
	322	58	0.00202	0.01939	0.00626	320.3	0	0	0	0	1	0	0	-164.1900	-5.6200	164.7400	10.2600	0.0000	0.0000	0.0000	0.0000;
	61	60	0.000529	0.003518	0	0.32	0	0	0	0	1	0	0	-0.2000	-0.0500	0.2000	0.0500	0.0000	0.0000	0.0000	0.0000;
	60	131	0.001985	0.018208	0.00645	320.29	0	0	0	0	1	0	0	-13.1300	-2.8800	13.1400	2.2400	0.0000	0.0000	0.0000	0.0000;
	466	60	0.002011	0.019314	0.00623	320.29	0	0	0	0	1	0	0	-12.9300	-3.4400	12.9300	2.8300	0.0000	0.0000	0.0000	0.0000;
	63	62	0.0032	0.16353	0	70	0	0	1	0	1	0	0	0.0000	0.0000	0.0000	0.0000	0.0000	0.0000	0.0000	0.0000;
	64	62	0.000661	0.003274	0	45.58	0	0	0	0	1	0	0	-34.7800	-9.2700	34.7800	9.3200	0.0000	0.0000	0.0000	0.0000;
	287	62	0.005453	0.052365	0.0169	320.29	0	0	0	0	1	0	0	-21.3800	10.3300	21.4100	-11.7700	0.0000	0.0000	0.0000	0.0000;
	62	457	0.007267	0.069786	0.02253	320.29	0	0	0	0	1	0	0	-68.3700	-9.6900	68.7100	10.6200	0.0000	0.0000	0.0000	0.0000;
	66	65	0.000808	0.03088	0	405	0	0	1	0	1	0	0	-100.7400	-9.4100	100.8200	12.4400	0.0000	0.0000	0.0000	0.0000;
	80	65	0.00096	0.013773	0.24648	1493.89	0	0	0	0	1	0	0	63.8900	31.2000	-63.8400	-56.5000	0.0000	0.0000	0.0000	0.0000;
	65	297	0.00092	0.013192	0.23607	1493.89	0	0	0	0	1	0	0	-36.9800	44.0500	37.0200	-68.1300	0.0000	0.0000	0.0000	0.0000;
	67	66	0.000661	0.003359	0	6.71	0	0	0	0	1	0	0	-4.5700	-1.2200	4.5700	1.2200	0.0000	0.0000	0.0000	0.0000;
	66	308	0.00718	0.06895	0.02226	320.29	0	0	0	0	1	0	0	59.3700	7.1200	-59.1300	-7.0400	0.0000	0.0000	0.0000	0.0000;
	69	68	0.000669	0.003998	0	27.64	0	0	0	0	1	0	0	-16.9600	-4.5200	16.9600	4.5400	0.0000	0.0000	0.0000	0.0000;
	68	295	0.004469	0.040995	0.01453	320.29	0	0	0	0	1	0	0	-61.9100	5.9800	62.0800	-5.9100	0.0000	0.0000	0.0000	0.0000;
	68	314	0.001805	0.017334	0.0056	320.29	0	0	0	0	1	0	0	-52.6700	4.7700	52.7200	-4.8700	0.0000	0.0000	0.0000	0.0000;
	71	70	0.00103	0.04472	0	133	0	0	1	0	1	0	0	4.0000	1.5400	-4.0000	-1.5300	0.0000	0.0000	0.0000	0.0000;
	72	70	0.00292	0.14481	0	60	0	0	1	0	1	0	0	2.0000	0.7700	-2.0000	-0.7600	0.0000	0.0000	0.0000	0.0000;
	73	70	0.012696	0.27303	0	49	0	0	1	0	1	0	0	1.4000	0.5400	-1.4000	-0.5300	0.0000	0.0000	0.0000	0.0000;
	216	70	0.002596	0.02381	0.00844	320.29	0	0	0	0	1	0	0	-26.0500	-15.1800	26.0800	14.5600	0.0000	0.0000	0.0000	0.0000;
	70	490	0.002127	0.019512	0.00691	320.29	0	0	0	0	1	0	0	-18.6800	-11.7400	18.6900	11.1500	0.0000	0.0000	0.0000	0.0000;
	75	74	0.000584	0.003339	0	8.81	0	0	0	0	1	0	0	-5.3000	-1.4100	5.3000	1.4100	0.0000	0.0000	0.0000	0.0000;
	74	189	0.005632	0.054084	0.01746	320.29	0	0	0	0	1	0	0	9.0700	-7.1200	-9.0600	5.3400	0.0000	0.0000	0.0000	0.0000;
	240	74	0.004434	0.04067	0.01441	320.29	0	0	0	0	1	0	0	14.3800	-7.1200	-14.3700	5.7000	0.0000	0.0000	0.0000	0.0000;
	77	76	0.000695	0.003313	0	12.16	0	0	0	0	1	0	0	-6.9500	-1.8500	6.9500	1.8600	0.0000	0.0000	0.0000	0.0000;
	452	76	0.002012	0.019322	0.00624	320.29	0	0	0	0	1	0	0	118.0400	-18.0400	-117.7600	20.0600	0.0000	0.0000	0.0000	0.0000;
	79	78	0.000622	0.003279	0	0.52	0	0	0	0	1	0	0	-0.3800	-0.1000	0.3800	0.1000	0.0000	0.0000	0.0000	0.0000;
	78	328	0.005432	0.049829	0.01766	320.29	0	0	0	0	1	0	0	157.8300	16.7600	-156.4900	-6.2900	0.0000	0.0000	0.0000	0.0000;
	78	387	0.002354	0.022609	0.0073	320.29	0	0	0	0	1	0	0	-158.2100	-16.8600	158.7900	21.6900	0.0000	0.0000	0.0000	0.0000;
	81	80	0.00065	0.03481	0	529	0	0	1	0	1	0	0	-137.3700	-11.0800	137.4800	17.3600	0.0000	0.0000	0.0000	0.0000;
	82	80	0.00043	0.03113	0	628	0	0	1	0	1	0	0	361.9000	41.1300	-361.3700	-2.9500	0.0000	0.0000	0.0000	0.0000;
	407	80	0.000818	0.010825	0.22813	1493.89	0	0	0	0	1	0	0	-159.7900	23.9800	160.0000	-45.6100	0.0000	0.0000	0.0000	0.0000;
	149	81	0.002879	0.02641	0.00936	320.29	0	0	0	0	1	0	0	-65.7400	-8.7800	65.8600	8.9100	0.0000	0.0000	0.0000	0.0000;
	84	83	0.000638	0.003655	0	105.41	0	0	0	0	1	0	0	-61.4100	-16.3800	61.4300	16.5200	0.0000	0.0000	0.0000	0.0000;
	83	342	0.004116	0.03952	0.01276	320.29	0	0	0	0	1	0	0	-47.4600	-13.4000	47.5600	13.0500	0.0000	0.0000	0.0000	0.0000;
	86	85	0.000652	0.003901	0	30.04	0	0	0	0	1	0	0	-17.5900	-4.6900	17.5900	4.7000	0.0000	0.0000	0.0000	0.0000;
	272	85	0.004412	0.04047	0.01434	320.29	0	0	0	0	1	0	0	59.0300	-12.8300	-58.8700	12.7200	0.0000	0.0000	0.0000	0.0000;
	88	87	0.000623	0.003569	0	7.69	0	0	0	0	1	0	0	-5.2500	-1.4000	5.2500	1.4000	0.0000	0.0000	0.0000	0.0000;
	87	141	0.001846	0.017727	0.00572	320.29	0	0	0	0	1	0	0	319.5400	-21.9400	-317.6500	39.5100	0.0000	0.0000	0.0000	0.0000;
	87	143	0.00382	0.035043	0.01242	320.29	0	0	0	0	1	0	0	-291.3600	-5.0200	294.6000	33.4500	0.0000	0.0000	0.0000	0.0000;
	423	87	0.001836	0.017627	0.00569	320.29	0	0	0	0	1	0	0	33.4600	-25.8100	-33.4300	25.5600	0.0000	0.0000	0.0000	0.0000;
	90	89	0.000554	0.003864	0	10.48	0	0	0	0	1	0	0	-5.9000	-1.5700	5.9000	1.5700	0.0000	0.0000	0.0000	0.0000;
	89	187	0.002116	0.020322	0.00656	320.29	0	0	0	0	1	0	0	34.3000	-0.2900	-34.2800	-0.1500	0.0000	0.0000	0.0000	0.0000;
	89	457	0.009012	0.082666	0.02929	320.29	0	0	0	0	1	0	0	-40.2000	-1.2800	40.3400	-0.4800	0.0000	0.0000	0.0000	0.0000;
	92	91	0.000572	0.003617	0	104.24	0	0	0	0	1	0	0	-65.0300	-17.3400	65.0500	17.5000	0.0000	0.0000	0.0000	0.0000;
	91	133	0.00504	0.048401	0.01562	320.29	0	0	0	0	1	0	0	-2.9300	-2.9000	2.9300	1.3000	0.0000	0.0000	0.0000	0.0000;
	94	93	0.000536	0.003281	0	8.18	0	0	0	0	1	0	0	-5.2100	-1.3900	5.2100	1.3900	0.0000	0.0000	0.0000	0.0000;
	269	93	0.003921	0.035965	0.01275	320.29	0	0	0	0	1	0	0	-41.9100	4.8500	41.9800	-5.5500	0.0000	0.0000	0.0000	0.0000;
	336	93	0.005795	0.053155	0.01884	320.29	0	0	0	0	1	0	0	47.3200	-4.9400	-47.1900	4.1500	0.0000	0.0000	0.0000	0.0000;
	96	95	0.000563	0.003253	0	56.18	0	0	0	0	1	0	0	-34.0000	-9.0700	34.0100	9.1100	0.0000	0.0000	0.0000	0.0000;
	95	170	0.002111	0.020268	0.00654	320.29	0	0	0	0	1	0	0	12.2800	0.8200	-12.2800	-1.4500	0.0000	0.0000	0.0000	0.0000;
	95	369	0.004094	0.039316	0.01269	320.29	0	0	0	0	1	0	0	-46.2900	-9.9200	46.3800	9.4700	0.0000	0.0000	0.0000	0.0000;
	98	97	0.000569	0.003986	0	66.43	0	0	0	0	1	0	0	-37.0900	-9.8900	37.1000	9.9500	0.0000	0.0000	0.0000	0.0000;
	181	97	0.002992	0.028734	0.00928	320.29	0	0	0	0	1	0	0	14.7600	21.1100	-14.7400	-21.8600	0.0000	0.0000	0.0000	0.0000;
	358	97	0.002676	0.024552	0.0087	320.29	0	0	0	0	1	0	0	22.3800	-12.6300	-22.3600	11.9100	0.0000	0.0000	0.0000	0.0000;
	100	99	0.000644	0.00362	0	22.69	0	0	0	0	1	0	0	-13.5200	-3.6100	13.5200	3.6100	0.0000	0.0000	0.0000	0.0000;
	101	99	0.000699	0.003294	0	1.37	0	0	0	0	1	0	0	-0.8900	-0.2400	0.8900	0.2400	0.0000	0.0000	0.0000	0.0000;
	99	465	0.002689	0.02582	0.00834	320.29	0	0	0	0	1	0	0	-9.3600	-4.7200	9.3600	3.8800	0.0000	0.0000	0.0000	0.0000;
	472	99	0.003318	0.031864	0.01029	320.29	0	0	0	0	1	0	0	5.0600	-1.9400	-5.0600	0.8700	0.0000	0.0000	0.0000	0.0000;
	103	102	0.000614	0.003874	0	64.6	0	0	0	0	1	0	0	-38.8000	-10.3500	38.8100	10.4100	0.0000	0.0000	0.0000	0.0000;
	102	308	0.00565	0.054254	0.01751	320.29	0	0	0	0	1	0	0	-67.0600	-10.0600	67.3200	10.7600	0.0000	0.0000	0.0000	0.0000;
	419	102	0.003638	0.034938	0.01128	320.29	0	0	0	0	1	0	0	-28.2200	-0.5100	28.2500	-0.3500	0.0000	0.0000	0.0000	0.0000;
	105	104	0.000673	0.003751	0	144.23	0	0	0	0	1	0	0	-80.3300	-21.4200	80.3800	21.6700	0.0000	0.0000	0.0000	0.0000;
	104	191	0.005177	0.047485	0.01683	320.29	0	0	0	0	1	0	0	-63.8800	4.4200	64.0800	-4.2800	0.0000	0.0000	0.0000	0.0000;
	107	106	0.000575	0.003206	0	24.46	0	0	0	0	1	0	0	-16.0100	-4.2700	16.0100	4.2800	0.0000	0.0000	0.0000	0.0000;
	106	191	0.004468	0.042904	0.01385	320.29	0	0	0	0	1	0	0	41.5200	-3.1500	-41.4500	2.4200	0.0000	0.0000	0.0000	0.0000;
	236	106	0.003115	0.029915	0.00966	320.29	0	0	0	0	1	0	0	57.6300	1.0700	-57.5300	-1.1300	0.0000	0.0000	0.0000	0.0000;
	109	108	0.000658	0.00301	0	62.91	0	0	0	0	1	0	0	-47.5800	-12.6900	47.6000	12.7600	0.0000	0.0000	0.0000	0.0000;
	108	472	0.002033	0.019521	0.0063	320.29	0	0	0	0	1	0	0	-97.6200	-24.6000	97.8200	25.8600	0.0000	0.0000	0.0000	0.0000;
	108	495	0.003611	0.034672	0.01119	320.29	0	0	0	0	1	0	0	50.0200	11.8400	-49.9300	-12.0900	0.0000	0.0000	0.0000	0.0000;
	111	110	0.000527	0.003708	0	87.02	0	0	0	0	1	0	0	-62.2900	-16.6100	62.3100	16.7600	0.0000	0.0000	0.0000	0.0000;
	274	110	0.003126	0.030018	0.00969	320.29	0	0	0	0	1	0	0	-49.2600	1.3800	49.3300	-1.7100	0.0000	0.0000	0.0000	0.0000;
	110	316	0.003439	0.033025	0.01066	320.29	0	0	0	0	1	0	0	-111.6400	37.7200	112.0900	-34.4700	0.0000	0.0000	0.0000	0.0000;
	113	112	0.000644	0.003119	0	72.98	0	0	0	0	1	0	0	-45.9900	-12.2600	46.0000	12.3300	0.0000	0.0000	0.0000	0.0000;
	193	112	0.002867	0.027534	0.00889	320.29	0	0	0	0	1	0	0	-30.8500	7.3900	30.8800	-8.0400	0.0000	0.0000	0.0000	0.0000;
	112	236	0.006329	0.060777	0.01962	320.29	0	0	0	0	1	0	0	0.6400	-14.8700	-0.6300	12.9500	0.0000	0.0000	0.0000	0.0000;
	112	283	0.008619	0.08276	0.02672	320.29	0	0	0	0	1	0	0	11.1400	-5.8200	-11.1300	3.1800	0.0000	0.0000	0.0000	0.0000;
	372	112	0.002007	0.019267	0.00622	320.29	0	0	0	0	1	0	0	152.0000	11.5500	-151.5500	-7.8800	0.0000	0.0000	0.0000	0.0000;
	112	499	0.005577	0.051155	0.01813	320.29	0	0	0	0	1	0	0	54.4700	14.9300	-54.3000	-15.1700	0.0000	0.0000	0.0000	0.0000;
	115	114	0.000506	0.00336	0	6.74	0	0	0	0	1	0	0	-5.0600	-1.3500	5.0600	1.3500	0.0000	0.0000	0.0000	0.0000;
	116	114	0.000505	0.003411	0	5.26	0	0	0	0	1	0	0	-3.1000	-0.8300	3.1000	0.8300	0.0000	0.0000	0.0000	0.0000;
	114	191	0.005557	0.053364	0.01723	320.29	0	0	0	0	1	0	0	-17.7700	0.1300	17.7900	-1.7500	0.0000	0.0000	0.0000	0.0000;
	114	312	0.006609	0.063462	0.02049	320.29	0	0	0	0	1	0	0	9.6100	-2.3000	-9.6000	0.2300	0.0000	0.0000	0.0000	0.0000;
	118	117	0.000634	0.003851	0	12.8	0	0	0	0	1	0	0	-8.8300	-2.3600	8.8300	2.3600	0.0000	0.0000	0.0000	0.0000;
	117	426	0.003172	0.029099	0.01031	320.29	0	0	0	0	1	0	0	-57.4100	-21.2300	57.5300	21.2500	0.0000	0.0000	0.0000	0.0000;
	490	117	0.002999	0.027508	0.00975	320.29	0	0	0	0	1	0	0	-48.5000	-19.1000	48.5800	18.8700	0.0000	0.0000	0.0000	0.0000;
	120	119	0.000556	0.003059	0	46.58	0	0	0	0	1	0	0	-31.6500	-8.4400	31.6600	8.4700	0.0000	0.0000	0.0000	0.0000;
	119	129	0.00235	0.021554	0.00764	320.29	0	0	0	0	1	0	0	41.7000	8.5100	-41.6600	-8.8500	0.0000	0.0000	0.0000	0.0000;
	253	119	0.001494	0.01435	0.00463	320.29	0	0	0	0	1	0	0	73.4400	17.3700	-73.3600	-16.9900	0.0000	0.0000	0.0000	0.0000;
	122	121	0.000555	0.003846	0	70.42	0	0	0	0	1	0	0	-53.3600	-14.2300	53.3800	14.3400	0.0000	0.0000	0.0000	0.0000;
	121	276	0.002548	0.024463	0.0079	320.29	0	0	0	0	1	0	0	-16.7400	-15.3000	16.7600	14.6100	0.0000	0.0000	0.0000	0.0000;
	121	287	0.007088	0.068058	0.02197	320.29	0	0	0	0	1	0	0	-36.6400	0.9600	36.7300	-2.3200	0.0000	0.0000	0.0000	0.0000;
	124	123	0.0002	0.01438	0	488	0	0	1	0	1	0	0	-90.5500	-15.6100	90.5700	16.7600	0.0000	0.0000	0.0000	0.0000;
	125	123	0.00028	0.04064	0	346	0	0	1	0	1	0	0	0.0000	0.0000	0.0000	0.0000	0.0000	0.0000	0.0000	0.0000;
	126	123	0.00015	0.02189	0	352	0	0	1	0	1	0	0	0.0000	0.0000	0.0000	0.0000	0.0000	0.0000	0.0000	0.0000;
...
];

%%-----  OPF Data  -----%%
%% generator cost data
%	1	startup	shutdown	n	x1	y1	...	xn	yn
%	2	startup	shutdown	n	c(n-1)	...	c0
mpc.gencost = [
	2	0	0	3	0.002	19	1424.48;
	2	0	0	3	0	5.867	1266.47;
	2	0	0	3	0	8.412	1319.13;
	2	0	0	3	0	9.275	1076.21;
	2	0	0	3	0.002	19	236.03;
	2	0	0	3	0.002	19	236.07;
	2	0	0	3	0.002	23.152	604.8;
	2	0	0	3	0	0	0;
	2	0	0	3	0	0	0;
	2	0	0	3	0	0	0;
	2	0	0	3	0	0	0;
	2	0	0	3	0	0	0;
	2	0	0	3	0	0	0;
	2	0	0	3	0	0	0;
	2	0	0	3	0	0	0;
	2	0	0	3	0	6.87	1363.88;
	2	0	0	3	0	8.143	1060.19;
	2	0	0	3	0	0	0;
	2	0	0	3	0	0	0;
	2	0	0	3	0	0	0;
	2	0	0	3	0.002	19	1081.02;
	2	0	0	3	0.002	19	879.08;
	2	0	0	3	0	0	0;
	2	0	0	3	0	0	0;
	2	0	0	3	0	0	0;
	2	0	0	3	0	0	0;
	2	0	0	3	0.002	19	236.08;
	2	0	0	3	0.002	24.033	799.8;
	2	0	0	3	0.002	24.033	799.8;
	2	0	0	3	0.002	26.742	2763.98;
	2	0	0	3	0.002	19	236.11;
	2	0	0	3	0.002	19	236.09;
	2	0	0	3	0.002	19	236.08;
	2	0	0	3	0.002	19	236.14;
	2	0	0	3	0.002	19	236.03;
	2	0	0	3	0.002	23.396	658.8;
	2	0	0	3	0.002	23.202	615.9;
	2	0	0	3	0.002	23.816	751.8;
	2	0	0	3	0.002	19	236.08;
	2	0	0	3	0.002	19	236.08;
	2	0	0	3	0	0	0;
	2	0	0	3	0	0	0;
	2	0	0	3	0	0	0;
	2	0	0	3	0	0	0;
	2	0	0	3	0	0	0;
	2	0	0	3	0	0	0;
	2	0	0	3	0	0	0;
	2	0	0	3	0.002	23.141	602.4;
	2	0	0	3	0.002	23.205	616.5;
	2	0	0	3	0.002	23.152	604.8;
	2	0	0	3	0.002	23.198	615;
	2	0	0	3	0.002	24.305	859.99;
	2	0	0	3	0.002	24.305	859.99;
	2	0	0	3	0.002	24.305	859.99;
	2	0	0	3	0.002	23.919	774.6;
	2	0	0	3	0.002	23.919	774.6;
	2	0	0	3	0.002	23.919	774.6;
	2	0	0	3	0.002	23.919	774.6;
	2	0	0	3	0.002	23.919	774.6;
	2	0	0	3	0.002	23.808	750;
	2	0	0	3	0.002	24.059	805.42;
	2	0	0	3	0.002	24.059	805.42;
	2	0	0	3	0.002	24.059	805.42;
	2	0	0	3	0.002	24.059	805.42;
	2	0	0	3	0.002	23.883	766.65;
	2	0	0	3	0	0	0;
	2	0	0	3	0	0	0;
	2	0	0	3	0	0	0;
	2	0	0	3	0	0	0;
	2	0	0	3	0	0	0;
	2	0	0	3	0	0	0;
	2	0	0	3	0	0	0;
	2	0	0	3	0	0	0;
	2	0	0	3	0	0	0;
	2	0	0	3	0	0	0;
	2	0	0	3	0.002	23.862	762;
	2	0	0	3	0.002	24.316	862.5;
	2	0	0	3	0.002	23.152	604.95;
	2	0	0	3	0.002	24.641	934.24;
	2	0	0	3	0.002	26.152	1344.19;
	2	0	0	3	0	0	0;
	2	0	0	3	0.002	19	236.19;
	2	0	0	3	0	0	0;
	2	0	0	3	0	0	0;
	2	0	0	3	0	0	0;
	2	0	0	3	0	0	0;
	2	0	0	3	0	0	0;
	2	0	0	3	0.002	19	236.15;
	2	0	0	3	0	0	0;
	2	0	0	3	0	0	0;
];

%% generator unit type (see GENTYPES)
mpc.gentype = {
	'ST';
	'NB';
	'NB';
	'NB';
	'ST';
	'ST';
	'GT';
	'HY';
	'HY';
	'HY';
	'HY';
	'HY';
	'HY';
	'HY';
	'HY';
	'NB';
	'NB';
	'HY';
	'HY';
	'HY';
	'ST';
	'ST';
	'HY';
	'HY';
	'HY';
	'HY';
	'ST';
	'GT';
	'GT';
	'GT';
	'ST';
	'ST';
	'ST';
	'ST';
	'ST';
	'GT';
	'GT';
	'GT';
	'ST';
	'ST';
	'HY';
	'HY';
	'HY';
	'HY';
	'HY';
	'HY';
	'HY';
	'GT';
	'GT';
	'GT';
	'GT';
	'GT';
	'GT';
	'GT';
	'GT';
	'GT';
	'GT';
	'GT';
	'GT';
	'GT';
	'GT';
	'GT';
	'GT';
	'GT';
	'GT';
	'HY';
	'HY';
	'HY';
	'HY';
	'HY';
	'HY';
	'HY';
	'HY';
	'HY';
	'HY';
	'GT';
	'GT';
	'GT';
	'GT';
	'GT';
	'PV';
	'ST';
	'HY';
	'HY';
	'HY';
	'HY';
	'HY';
	'ST';
	'HY';
	'HY';
};

%% generator fuel type (see GENFUELS)
mpc.genfuel = {
	'coal';
	'nuclear';
	'nuclear';
	'nuclear';
	'coal';
	'coal';
	'ng';
	'hydro';
	'hydro';
	'hydro';
	'hydro';
	'hydro';
	'hydro';
	'hydro';
	'hydro';
	'nuclear';
	'nuclear';
	'hydro';
	'hydro';
	'hydro';
	'coal';
	'coal';
	'hydro';
	'hydro';
	'hydro';
	'hydro';
	'coal';
	'ng';
	'ng';
	'ng';
	'coal';
	'coal';
	'coal';
	'coal';
	'coal';
	'ng';
	'ng';
	'ng';
	'coal';
	'coal';
	'hydro';
	'hydro';
	'hydro';
	'hydro';
	'hydro';
	'hydro';
	'hydro';
	'ng';
	'ng';
	'ng';
	'ng';
	'ng';
	'ng';
	'ng';
	'ng';
	'ng';
	'ng';
	'ng';
	'ng';
	'ng';
	'ng';
	'ng';
	'ng';
	'ng';
	'ng';
	'hydro';
	'hydro';
	'hydro';
	'hydro';
	'hydro';
	'hydro';
	'hydro';
	'hydro';
	'hydro';
	'hydro';
	'ng';
	'ng';
	'ng';
	'ng';
	'ng';
	'solar';
	'coal';
	'hydro';
	'hydro';
	'hydro';
	'hydro';
	'hydro';
	'coal';
	'hydro';
	'hydro';
};

%% bus names
mpc.bus_name = {
	'WINNSBORO 0';
	'WINNSBORO 1';
	'COLUMBIA 11 0';
	'COLUMBIA 11 1';
	'SMYRNA 0';
	'SMYRNA 1';
	'EASTOVER 2 0';
	'EASTOVER 2 1';
	'EASTOVER 2 2';
	'CHAPPELLS 2 0';
	'CHAPPELLS 2 1';
	'PELZER 0';
	'PELZER 1';
	'SENECA 3 0';
	'SENECA 3 1';
	'SENECA 3 2';
	'SENECA 3 3';
	'SENECA 3 4';
	'MONETTA 0';
	'MONETTA 1';
	'LEXINGTON 2 0';
	'LEXINGTON 2 1';
	'WELLFORD 0';
	'WELLFORD 1';
	'WELLFORD 2';
	'WELLFORD 3';
	'LAURENS 0';
	'LAURENS 1';
	'COLUMBIA 10 0';
	'COLUMBIA 10 1';
	'WINDSOR 0';
	'WINDSOR 1';
	'PROSPERITY 0';
	'PROSPERITY 1';
	'NORTH AUGUSTA 2 0';
	'NORTH AUGUSTA 2 1';
	'LANDO 0';
	'LANDO 1';
	'GAFFNEY 3 0';
	'GAFFNEY 3 1';
	'GAFFNEY 3 2';
	'CLARKS HILL 2 0';
	'CLARKS HILL 2 1';
	'JENKINSVILLE 0';
	'JENKINSVILLE 1';
	'WOODRUFF 0';
	'WOODRUFF 1';
	'IVA 0';
	'IVA 1';
	'IVA 2';
	'IVA 3';
	'IVA 4';
	'CAYCE 0';
	'CAYCE 1';
	'TROY 0';
	'TROY 1';
	'SIMPSONVILLE 2 0';
	'SIMPSONVILLE 2 1';
	'SIMPSONVILLE 2 2';
	'MAYO 0';
	'MAYO 1';
	'BELTON 2 0';
	'BELTON 2 1';
	'BELTON 2 2';
	'BRADLEY 0';
	'BRADLEY 1';
	'BRADLEY 2';
	'ENOREE 0';
	'ENOREE 1';
	'HONEA PATH 2 0';
	'HONEA PATH 2 1';
	'HONEA PATH 2 2';
	'HONEA PATH 2 3';
	'SPRINGFIELD 0';
	'SPRINGFIELD 1';
	'EDGEMOOR 0';
	'EDGEMOOR 1';
	'NEWRY 0';
	'NEWRY 1';
	'CLARKS HILL 1 0';
	'CLARKS HILL 1 1';
	'CLARKS HILL 1 2';
	'NEWBERRY 0';
	'NEWBERRY 1';
	'AIKEN 3 0';
	'AIKEN 3 1';
	'ROCK HILL 3 0';
	'ROCK HILL 3 1';
	'CAMERON 0';
	'CAMERON 1';
	'SENECA 2 0';
	'SENECA 2 1';
	'BLAIR 0';
	'BLAIR 1';
	'WALHALLA 0';
	'WALHALLA 1';
	'ANDERSON 4 0';
	'ANDERSON 4 1';
	'PACOLET 0';
	'PACOLET 1';
	'PACOLET 2';
	'ABBEVILLE 0';
	'ABBEVILLE 1';
	'AIKEN 2 0';
	'AIKEN 2 1';
	'JOHNSTON 0';
	'JOHNSTON 1';
	'SPARTANBURG 6 0';
	'SPARTANBURG 6 1';
	'GAFFNEY 2 0';
	'GAFFNEY 2 1';
	'LEESVILLE 0';
	'LEESVILLE 1';
	'LANGLEY 0';
	'LANGLEY 1';
	'LANGLEY 2';
	'DONALDS 0';
	'DONALDS 1';
	'GREENVILLE 7 0';
	'GREENVILLE 7 1';
	'COLUMBIA 9 0';
	'COLUMBIA 9 1';
	'SALEM 3 0';
	'SALEM 3 1';
	'SALEM 3 2';
	'SALEM 3 3';
	'SALEM 3 4';
	'SALEM 3 5';
	'GREENVILLE 6 0';
	'GREENVILLE 6 1';
	'COWPENS 0';
	'COWPENS 1';
	'WESTMINSTER 2 0';
	'WESTMINSTER 2 1';
	'SAINT MATTHEWS 0';
	'SAINT MATTHEWS 1';
	'GREENWOOD 2 0';
	'GREENWOOD 2 1';
	'FINGERVILLE 0';
	'FINGERVILLE 1';
	'ROCK HILL 2 0';
	'ROCK HILL 2 1';
	'YORK 2 0';
	'YORK 2 1';
	'YORK 2 2';
	'CHAPIN 0';
	'CHAPIN 1';
	'CHAPIN 2';
	'MODOC 0';
	'MODOC 1';
	'SPARTANBURG 5 0';
	'SPARTANBURG 5 1';
	'SPARTANBURG 5 2';
	'BOILING SPRINGS 0';
	'BOILING SPRINGS 1';
	'GREENVILLE 5 0';
	'GREENVILLE 5 1';
	'PELION 0';
	'PELION 1';
	'GRANITEVILLE 0';
	'GRANITEVILLE 1';
	'IRMO 0';
	'IRMO 1';
	'IRMO 2';
	'SALEM 2 0';
	'SALEM 2 1';
	'SALEM 2 2';
	'SALEM 2 3';
	'SALEM 2 4';
	'WEST UNION 0';
	'WEST UNION 1';
	'CROSS HILL 0';
	'CROSS HILL 1';
	'CROSS HILL 2';
	'FORT LAWN 0';
	'FORT LAWN 1';
	'FORT LAWN 2';
	'FORT LAWN 3';
	'NORTH 0';
	'NORTH 1';
	'ANDERSON 3 0';
	'ANDERSON 3 1';
	'BLACKSBURG 2 0';
	'BLACKSBURG 2 1';
	'LIBERTY 0';
	'LIBERTY 1';
	'ELLOREE 0';
	'ELLOREE 1';
	'WAGENER 0';
	'WAGENER 1';
	'TRENTON 0';
	'TRENTON 1';
	'BATESBURG 0';
	'BATESBURG 1';
	'COLUMBIA 8 0';
	'COLUMBIA 8 1';
	'COLUMBIA 8 2';
	'COLUMBIA 8 3';
	'COLUMBIA 8 4';
	'LITTLE MOUNTAIN 0';
	'LITTLE MOUNTAIN 1';
	'CLINTON 0';
	'CLINTON 1';
	'CLINTON 2';
	'WARRENVILLE 0';
	'WARRENVILLE 1';
	'WARRENVILLE 2';
	'SIMPSONVILLE 1 0';
	'SIMPSONVILLE 1 1';
	'DUNCAN 0';
	'DUNCAN 1';
	'NORTH AUGUSTA 1 0';
	'NORTH AUGUSTA 1 1';
	'GREENWOOD 1 0';
	'GREENWOOD 1 1';
	'BELTON 1 0';
	'BELTON 1 1';
	'VAUCLUSE 0';
	'VAUCLUSE 1';
	'UNION 3 0';
	'UNION 3 1';
	'UNION 3 2';
	'UNION 3 3';
	'UNION 3 4';
	'UNION 3 5';
	'MOUNTAIN REST 0';
	'MOUNTAIN REST 1';
	'PICKENS 0';
	'PICKENS 1';
	'WESTMINSTER 1 0';
	'WESTMINSTER 1 1';
	'WEST COLUMBIA 3 0';
	'WEST COLUMBIA 3 1';
	'WEST COLUMBIA 3 2';
	'WARD 0';
	'WARD 1';
	'WARD 2';
	'MOORE 0';
	'MOORE 1';
	'WILLISTON 0';
	'WILLISTON 1';
	'COLUMBIA 7 0';
	'COLUMBIA 7 1';
	'WATERLOO 0';
	'WATERLOO 1';
	'BLACKSBURG 1 0';
	'BLACKSBURG 1 1';
	'BLACKSBURG 1 2';
	'BLACKSBURG 1 3';
	'BLACKSBURG 1 4';
	'TAYLORS 0';
	'TAYLORS 1';
	'GREENVILLE 4 0';
	'GREENVILLE 4 1';
	'GREENVILLE 4 2';
	'GREENVILLE 4 3';
	'GREENVILLE 4 4';
	'GREENVILLE 4 5';
	'GREENVILLE 4 6';
	'SALEM 1 0';
	'SALEM 1 1';
	'COLUMBIA 6 0';
	'COLUMBIA 6 1';
	'COLUMBIA 6 2';
	'COLUMBIA 6 3';
	'COLUMBIA 6 4';
	'AIKEN 1 0';
	'AIKEN 1 1';
	'POMARIA 0';
	'POMARIA 1';
	'RIDGE SPRING 0';
	'RIDGE SPRING 1';
	'RIDGE SPRING 2';
	'GAFFNEY 1 0';
	'GAFFNEY 1 1';
	'COLUMBIA 5 0';
	'COLUMBIA 5 1';
	'COLUMBIA 5 2';
	'MARIETTA 0';
	'MARIETTA 1';
	'ANDERSON 2 0';
	'ANDERSON 2 1';
	'SALUDA 0';
	'SALUDA 1';
	'FAIR PLAY 0';
	'FAIR PLAY 1';
	'HOPKINS 0';
	'HOPKINS 1';
	'SUNSET 0';
	'SUNSET 1';
	'SALLEY 0';
	'SALLEY 1';
	'EDGEFIELD 0';
	'EDGEFIELD 1';
	'BUFFALO 0';
	'BUFFALO 1';
	'WARE SHOALS 0';
	'WARE SHOALS 1';
	'WARE SHOALS 2';
	'YORK 1 0';
	'YORK 1 1';
	'YORK 1 2';
	'YORK 1 3';
	'PIEDMONT 0';
	'PIEDMONT 1';
	'PIEDMONT 2';
	'PIEDMONT 3';
	'CALHOUN FALLS 0';
	'CALHOUN FALLS 1';
	'ANDERSON 1 0';
	'ANDERSON 1 1';
	'JACKSON 0';
	'JACKSON 1';
	'CROSS ANCHOR 0';
	'CROSS ANCHOR 1';
	'HICKORY GROVE 0';
	'HICKORY GROVE 1';
	'GREAT FALLS 2 0';
	'GREAT FALLS 2 1';
	'COLUMBIA 4 0';
	'COLUMBIA 4 1';
	'MAULDIN 0';
	'MAULDIN 1';
	'GREENVILLE 3 0';
	'GREENVILLE 3 1';
	'COLUMBIA 3 0';
	'COLUMBIA 3 1';
	'PENDLETON 0';
	'PENDLETON 1';
	'SPARTANBURG 4 0';
	'SPARTANBURG 4 1';
	'CONVERSE 0';
	'CONVERSE 1';
	'CONVERSE 2';
	'CONVERSE 3';
	'BLACKSTOCK 0';
	'BLACKSTOCK 1';
	'FORT MILL 3 0';
	'FORT MILL 3 1';
	'LANDRUM 0';
	'LANDRUM 1';
	'SILVERSTREET 0';
	'SILVERSTREET 1';
	'SILVERSTREET 2';
	'ORANGEBURG 0';
	'ORANGEBURG 1';
	'GREENVILLE 2 0';
	'GREENVILLE 2 1';
	'CHAPPELLS 1 0';
	'CHAPPELLS 1 1';
	'CHAPPELLS 1 2';
	'CHAPPELLS 1 3';
	'CHAPPELLS 1 4';
	'RIDGEWAY 2 0';
	'RIDGEWAY 2 1';
	'FOUNTAIN INN 0';
	'FOUNTAIN INN 1';
...